Version 4
SHEET 1 880 680
WIRE 528 -176 -144 -176
WIRE 464 -96 -80 -96
WIRE -80 16 -80 -96
WIRE -48 16 -80 16
WIRE 240 48 80 48
WIRE 464 48 464 -96
WIRE 464 48 400 48
WIRE 512 48 464 48
WIRE -336 80 -416 80
WIRE -144 80 -144 -176
WIRE -144 80 -176 80
WIRE -48 80 -144 80
WIRE -128 128 -160 128
WIRE -416 240 -416 80
WIRE -128 240 -128 128
WIRE -128 240 -416 240
FLAG -336 128 CK
IOPIN -336 128 In
FLAG 240 96 CK
IOPIN 240 96 In
FLAG 80 16 Vdd
IOPIN 80 16 In
FLAG 512 48 Q1
IOPIN 512 48 Out
FLAG -256 176 0
FLAG 320 144 0
FLAG 528 -176 Q0
IOPIN 528 -176 Out
SYMBOL XORX1 16 48 R0
SYMATTR InstName X1
SYMBOL Digital\\dflop -256 32 R0
WINDOW 3 8 12 Invisible 2
SYMATTR Value Vhigh=3.3 Vlow=0
SYMATTR InstName A1
SYMBOL Digital\\dflop 320 0 R0
WINDOW 3 8 168 Invisible 2
SYMATTR Value Vhigh=3.3 Vlow=0
SYMATTR InstName A2
