Version 4
SHEET 1 880 680
WIRE 672 -16 0 -16
WIRE 624 64 64 64
WIRE 64 176 64 64
WIRE 96 176 64 176
WIRE 384 208 224 208
WIRE 624 208 624 64
WIRE 624 208 544 208
WIRE 656 208 624 208
WIRE -240 240 -352 240
WIRE 0 240 0 -16
WIRE 0 240 -80 240
WIRE 96 240 0 240
WIRE 384 240 352 240
WIRE -240 272 -256 272
WIRE 16 272 -80 272
WIRE -352 400 -352 240
WIRE 16 400 16 272
WIRE 16 400 -352 400
FLAG -256 272 CK
IOPIN -256 272 In
FLAG 352 240 CK
IOPIN 352 240 In
FLAG 224 176 Vdd
IOPIN 224 176 In
FLAG 656 208 Q1
IOPIN 656 208 Out
FLAG 672 -16 Q0
IOPIN 672 -16 Out
FLAG -80 208 Vdd
IOPIN -80 208 In
FLAG 544 176 Vdd
IOPIN 544 176 In
SYMBOL XORX1 160 208 R0
SYMATTR InstName X1
SYMBOL DFF -160 240 R0
SYMATTR InstName X2
SYMBOL DFF 464 208 R0
SYMATTR InstName X3
