Version 4
SHEET 1 880 680
WIRE 528 -176 -144 -176
WIRE 480 -96 -80 -96
WIRE -80 16 -80 -96
WIRE -48 16 -80 16
WIRE 240 48 80 48
WIRE 480 48 480 -96
WIRE 480 48 400 48
WIRE 512 48 480 48
WIRE -384 80 -496 80
WIRE -144 80 -144 -176
WIRE -144 80 -224 80
WIRE -48 80 -144 80
WIRE 240 80 208 80
WIRE -384 112 -400 112
WIRE -128 112 -224 112
WIRE -496 240 -496 80
WIRE -128 240 -128 112
WIRE -128 240 -496 240
FLAG -400 112 CK
IOPIN -400 112 In
FLAG 208 80 CK
IOPIN 208 80 In
FLAG 80 16 Vdd
IOPIN 80 16 In
FLAG 512 48 Q1
IOPIN 512 48 Out
FLAG 528 -176 Q0
IOPIN 528 -176 Out
FLAG -224 48 Vdd
IOPIN -224 48 In
FLAG 400 16 Vdd
IOPIN 400 16 In
SYMBOL XORX1 16 48 R0
SYMATTR InstName X1
SYMBOL SDFF_IMPROVED -304 80 R0
SYMATTR InstName X2
SYMBOL SDFF_IMPROVED 320 48 R0
SYMATTR InstName X3
