Version 4
SHEET 1 1144 680
WIRE -160 16 -160 -32
WIRE -240 64 -304 64
WIRE 0 64 -80 64
WIRE 736 80 528 80
WIRE -160 144 -160 112
WIRE 736 160 736 80
WIRE 864 160 736 160
WIRE 736 272 736 160
WIRE 736 272 528 272
FLAG 528 32 Vdd
IOPIN 528 32 In
FLAG 368 80 X0
IOPIN 368 80 In
FLAG 368 32 A
IOPIN 368 32 In
FLAG -304 64 A
IOPIN -304 64 In
FLAG 0 64 A_BAR
FLAG 368 128 A_BAR
FLAG 528 224 Vdd
IOPIN 528 224 In
FLAG 864 160 Y
IOPIN 864 160 Out
FLAG 368 272 X1
IOPIN 368 272 In
FLAG 368 320 A
IOPIN 368 320 In
FLAG 368 224 A_BAR
FLAG -160 144 0
FLAG -160 -32 Vdd
IOPIN -160 -32 In
SYMBOL TGATE 448 80 R0
SYMATTR InstName X2
SYMBOL INVx1 -160 64 R0
SYMATTR InstName X3
SYMBOL TGATE 448 272 R0
SYMATTR InstName X4
TEXT 296 -112 Left 2 ;A IS THE SELECTOR FOR THE TRANSMISSION GATES
