Version 4.1
SHEET 1 880 680
WIRE 32 -32 32 -48
WIRE -288 -16 -320 -16
WIRE -48 16 -96 16
WIRE 160 16 112 16
WIRE -288 48 -320 48
WIRE 32 80 32 64
WIRE 528 96 528 80
WIRE 160 112 160 16
WIRE 208 112 160 112
WIRE 448 144 400 144
WIRE 640 144 608 144
WIRE 208 176 160 176
WIRE 528 208 528 192
FLAG -192 80 Vee
IOPIN -192 80 In
FLAG 32 -48 Vdd
IOPIN 32 -48 In
FLAG 32 80 Vee
IOPIN 32 80 In
FLAG 304 208 Vee
IOPIN 304 208 In
FLAG 528 80 Vdd
IOPIN 528 80 In
FLAG 528 208 Vee
IOPIN 528 208 In
FLAG 640 144 X
IOPIN 640 144 Out
FLAG -320 -16 A
IOPIN -320 -16 In
FLAG -320 48 B
IOPIN -320 48 In
FLAG 160 176 C
IOPIN 160 176 In
FLAG -192 -48 Vdd
IOPIN -192 -48 In
FLAG 304 80 Vdd
IOPIN 304 80 In
SYMBOL INVx1 528 144 R0
SYMATTR InstName X3
SYMBOL INVx1 32 16 R0
SYMATTR InstName X4
SYMBOL NAND2x1 -192 16 R0
SYMATTR InstName X7
SYMBOL NAND2x1 304 144 R0
SYMATTR InstName X8
