Version 4
SHEET 1 880 684
WIRE -448 -64 -448 -112
WIRE -528 -16 -592 -16
WIRE -288 -16 -368 -16
WIRE -448 64 -448 32
FLAG 240 -48 Vdd
IOPIN 240 -48 In
FLAG 240 0 Y0
IOPIN 240 0 Out
FLAG 80 0 X0
IOPIN 80 0 In
FLAG 80 -48 A
IOPIN 80 -48 In
FLAG -592 -16 A
IOPIN -592 -16 In
FLAG -288 -16 A_BAR
FLAG 80 48 A_BAR
FLAG 240 144 Vdd
IOPIN 240 144 In
FLAG 240 192 Y1
IOPIN 240 192 Out
FLAG 80 192 X1
IOPIN 80 192 In
FLAG 80 144 A
IOPIN 80 144 In
FLAG 80 240 A_BAR
FLAG 240 336 Vdd
IOPIN 240 336 In
FLAG 240 384 Y2
IOPIN 240 384 Out
FLAG 80 384 X2
IOPIN 80 384 In
FLAG 80 336 A
IOPIN 80 336 In
FLAG 80 432 A_BAR
FLAG -448 64 0
FLAG -448 -112 Vdd
IOPIN -448 -112 In
FLAG 752 -48 Vdd
IOPIN 752 -48 In
FLAG 752 0 Y3
IOPIN 752 0 Out
FLAG 592 0 X3
IOPIN 592 0 In
FLAG 592 -48 A
IOPIN 592 -48 In
FLAG 592 48 A_BAR
FLAG 752 144 Vdd
IOPIN 752 144 In
FLAG 752 192 Y4
IOPIN 752 192 Out
FLAG 592 192 X4
IOPIN 592 192 In
FLAG 592 144 A
IOPIN 592 144 In
FLAG 592 240 A_BAR
FLAG 752 336 Vdd
IOPIN 752 336 In
FLAG 752 384 Y5
IOPIN 752 384 Out
FLAG 592 384 X5
IOPIN 592 384 In
FLAG 592 336 A
IOPIN 592 336 In
FLAG 592 432 A_BAR
SYMBOL TGATE 160 0 R0
SYMATTR InstName X1
SYMBOL INVx1 -448 -16 R0
SYMATTR InstName X5
SYMBOL TGATE 160 192 R0
SYMATTR InstName X2
SYMBOL TGATE 160 384 R0
SYMATTR InstName X3
SYMBOL TGATE 672 0 R0
SYMATTR InstName X6
SYMBOL TGATE 672 192 R0
SYMATTR InstName X7
SYMBOL TGATE 672 384 R0
SYMATTR InstName X8
TEXT 8 -192 Left 2 ;A IS THE SELECTOR FOR THE TRANSMISSION GATES
