Version 4
SHEET 1 1556 832
WIRE 832 -304 832 -320
WIRE 720 -272 656 -272
WIRE 1040 -240 912 -240
WIRE 720 -208 656 -208
WIRE 832 -160 832 -176
WIRE 736 0 736 -32
WIRE 976 16 976 -48
WIRE 640 32 576 32
WIRE 112 64 112 0
WIRE 896 64 832 64
WIRE 1136 64 1056 64
WIRE 640 96 576 96
WIRE 32 112 -64 112
WIRE 272 112 192 112
WIRE 976 128 976 112
WIRE 736 144 736 128
WIRE 112 176 112 160
WIRE 736 304 736 272
WIRE 976 320 976 256
WIRE 640 336 576 336
WIRE 112 368 112 304
WIRE 896 368 832 368
WIRE 1136 368 1056 368
WIRE 640 400 576 400
WIRE 32 416 -64 416
WIRE 272 416 192 416
WIRE 976 432 976 416
WIRE 736 448 736 432
WIRE 112 480 112 464
WIRE 736 608 736 576
WIRE 976 624 976 560
WIRE 640 640 576 640
WIRE 896 672 832 672
WIRE 1136 672 1056 672
WIRE 640 704 576 704
WIRE 976 736 976 720
WIRE 736 752 736 736
FLAG 1136 64 PHI_1
IOPIN 1136 64 Out
FLAG 832 -160 0
FLAG 1040 -240 PHI_0
IOPIN 1040 -240 Out
FLAG 976 736 0
FLAG 736 752 0
FLAG 1136 672 PHI_3
IOPIN 1136 672 Out
FLAG 976 432 0
FLAG 736 448 0
FLAG 576 96 Q1_BAR
FLAG 1136 368 PHI_2
IOPIN 1136 368 Out
FLAG 976 128 0
FLAG 736 144 0
FLAG 112 176 0
FLAG -64 112 Q0
IOPIN -64 112 In
FLAG 272 112 Q0_BAR
FLAG 112 480 0
FLAG -64 416 Q1
IOPIN -64 416 In
FLAG 272 416 Q1_BAR
FLAG 576 336 Q0_BAR
FLAG 656 -272 Q0
IOPIN 656 -272 In
FLAG 656 -208 Q1
IOPIN 656 -208 In
FLAG 576 32 Q0
IOPIN 576 32 In
FLAG 576 400 Q1
IOPIN 576 400 In
FLAG 576 640 Q0
IOPIN 576 640 In
FLAG 576 704 Q1
IOPIN 576 704 In
FLAG 112 0 Vdd
IOPIN 112 0 In
FLAG 112 304 Vdd
IOPIN 112 304 In
FLAG 832 -320 Vdd
IOPIN 832 -320 In
FLAG 736 -32 Vdd
IOPIN 736 -32 In
FLAG 976 -48 Vdd
IOPIN 976 -48 In
FLAG 736 272 Vdd
IOPIN 736 272 In
FLAG 976 256 Vdd
IOPIN 976 256 In
FLAG 736 576 Vdd
IOPIN 736 576 In
FLAG 976 560 Vdd
IOPIN 976 560 In
SYMBOL NOR2x1 800 -240 R0
SYMATTR InstName X2
SYMBOL NAND2x1 736 672 R0
SYMATTR InstName X3
SYMBOL INVx1 976 672 R0
SYMATTR InstName X4
SYMBOL NAND2x1 736 368 R0
SYMATTR InstName X5
SYMBOL INVx1 976 368 R0
SYMATTR InstName X6
SYMBOL NAND2x1 736 64 R0
SYMATTR InstName X7
SYMBOL INVx1 976 64 R0
SYMATTR InstName X8
SYMBOL INVx1 112 112 R0
SYMATTR InstName X9
SYMBOL INVx1 112 416 R0
SYMATTR InstName X10
