Version 4
SHEET 1 2564 864
WIRE -64 0 -64 -32
WIRE 656 0 656 -32
WIRE 1536 0 1536 -32
WIRE 1952 0 1952 -32
WIRE -144 48 -304 48
WIRE 112 48 16 48
WIRE 336 48 272 48
WIRE 576 48 336 48
WIRE 928 48 736 48
WIRE 992 48 928 48
WIRE 1216 48 1152 48
WIRE 1456 48 1216 48
WIRE 1808 48 1616 48
WIRE 1872 48 1808 48
WIRE 2144 48 2032 48
WIRE -64 112 -64 96
WIRE 656 112 656 96
WIRE 1536 112 1536 96
WIRE 1952 112 1952 96
WIRE 784 368 784 336
WIRE 1664 368 1664 336
WIRE 336 416 336 48
WIRE 448 416 336 416
WIRE 704 416 608 416
WIRE 864 416 848 416
WIRE 928 416 928 48
WIRE 928 416 864 416
WIRE 1216 416 1216 48
WIRE 1328 416 1216 416
WIRE 1584 416 1488 416
WIRE 1744 416 1728 416
WIRE 1808 416 1808 48
WIRE 1808 416 1744 416
WIRE 2144 416 1808 416
WIRE 784 480 784 464
WIRE 1664 480 1664 464
WIRE 96 704 96 672
WIRE 16 752 -48 752
WIRE 32 752 16 752
WIRE 256 752 176 752
WIRE 96 816 96 800
FLAG -64 -32 Vdd
IOPIN -64 -32 In
FLAG -64 112 0
FLAG -304 48 D
IOPIN -304 48 In
FLAG 2144 48 Q
IOPIN 2144 48 Out
FLAG 656 -32 Vdd
IOPIN 656 -32 In
FLAG 656 112 0
FLAG 784 336 Vdd
IOPIN 784 336 In
FLAG 784 480 0
FLAG 1536 -32 Vdd
IOPIN 1536 -32 In
FLAG 1536 112 0
FLAG 1664 336 Vdd
IOPIN 1664 336 In
FLAG 1664 480 0
FLAG 1952 -32 Vdd
IOPIN 1952 -32 In
FLAG 1952 112 0
FLAG 2144 416 Q_BAR
IOPIN 2144 416 Out
FLAG 1152 0 Vdd
IOPIN 1152 0 In
FLAG 448 368 Vdd
IOPIN 448 368 In
FLAG 1328 368 Vdd
IOPIN 1328 368 In
FLAG 272 0 Vdd
IOPIN 272 0 In
FLAG 112 96 CK
IOPIN 112 96 In
FLAG 608 368 CK
IOPIN 608 368 In
FLAG 1488 464 CK
IOPIN 1488 464 In
FLAG 992 0 CK
IOPIN 992 0 In
FLAG 112 0 CK_BAR
FLAG 608 464 CK_BAR
FLAG 992 96 CK_BAR
FLAG 1488 368 CK_BAR
FLAG 96 672 Vdd
IOPIN 96 672 In
FLAG 96 816 0
FLAG -48 752 CK
IOPIN -48 752 In
FLAG 256 752 CK_BAR
SYMBOL INVx1 -64 48 R0
SYMATTR InstName X5
SYMBOL TGATE 192 48 R0
SYMATTR InstName X1
SYMBOL INVx1 656 48 R0
SYMATTR InstName X2
SYMBOL INVx1 784 416 M0
SYMATTR InstName X3
SYMBOL TGATE 528 416 M0
SYMATTR InstName X4
SYMBOL TGATE 1072 48 R0
SYMATTR InstName X6
SYMBOL INVx1 1536 48 R0
SYMATTR InstName X7
SYMBOL INVx1 1664 416 M0
SYMATTR InstName X8
SYMBOL TGATE 1408 416 M0
SYMATTR InstName X9
SYMBOL INVx1 1952 48 R0
SYMATTR InstName X10
SYMBOL INVx1 96 752 R0
SYMATTR InstName X11
