Version 4
SHEET 1 880 808
FLAG -32 -464 d0
IOPIN -32 -464 In
FLAG -32 -432 ck
IOPIN -32 -432 In
FLAG 128 -464 q0
IOPIN 128 -464 Out
FLAG 128 -496 Vdd
IOPIN 128 -496 In
FLAG -32 -304 d1
IOPIN -32 -304 In
FLAG -32 -272 ck
IOPIN -32 -272 In
FLAG 128 -304 q1
IOPIN 128 -304 Out
FLAG 128 -336 Vdd
IOPIN 128 -336 In
FLAG -32 -128 d2
IOPIN -32 -128 In
FLAG -32 -96 ck
IOPIN -32 -96 In
FLAG 128 -128 q2
IOPIN 128 -128 Out
FLAG 128 -160 Vdd
IOPIN 128 -160 In
FLAG -32 32 d3
IOPIN -32 32 In
FLAG -32 64 ck
IOPIN -32 64 In
FLAG 128 32 q3
IOPIN 128 32 Out
FLAG 128 0 Vdd
IOPIN 128 0 In
FLAG -32 192 d4
IOPIN -32 192 In
FLAG -32 224 ck
IOPIN -32 224 In
FLAG 128 192 q4
IOPIN 128 192 Out
FLAG 128 160 Vdd
IOPIN 128 160 In
FLAG -32 352 d5
IOPIN -32 352 In
FLAG -32 384 ck
IOPIN -32 384 In
FLAG 128 352 q5
IOPIN 128 352 Out
FLAG 128 320 Vdd
IOPIN 128 320 In
SYMBOL SDFF_IMPROVED 48 -464 R0
SYMATTR InstName X1
SYMBOL SDFF_IMPROVED 48 -304 R0
SYMATTR InstName X2
SYMBOL SDFF_IMPROVED 48 -128 R0
SYMATTR InstName X3
SYMBOL SDFF_IMPROVED 48 32 R0
SYMATTR InstName X4
SYMBOL SDFF_IMPROVED 48 192 R0
SYMATTR InstName X5
SYMBOL SDFF_IMPROVED 48 352 R0
SYMATTR InstName X6
