Version 4
SHEET 1 1308 988
WIRE 416 -48 288 -48
WIRE 208 48 176 48
WIRE 288 48 208 48
WIRE 32 256 -32 256
WIRE -32 288 -32 256
FLAG 176 -48 vdd
FLAG 176 -16 0
FLAG 208 48 co
FLAG 32 -48 vdd
FLAG 176 112 s0
FLAG 176 144 s1
FLAG 176 176 s2
FLAG 176 208 s3
FLAG 32 0 0
FLAG 32 32 vdd
FLAG 32 64 vdd
FLAG 32 96 vdd
FLAG 32 160 0
FLAG 32 192 0
FLAG 32 224 0
FLAG -32 368 0
FLAG -352 160 0
FLAG -352 80 vdd
FLAG 560 -48 vdd
FLAG 560 -16 0
FLAG 560 48 co2
FLAG 416 0 0
FLAG 416 32 vdd
FLAG 416 64 vdd
FLAG 416 96 vdd
FLAG 416 160 0
FLAG 416 192 0
FLAG 416 224 0
FLAG -32 256 b3
FLAG 416 256 b3
FLAG 288 -48 vdd
FLAG 1104 -384 co2
FLAG 1104 416 co2
FLAG 1248 -384 vdd
FLAG 1248 416 vdd
SYMBOL CLA-4bit 96 112 R0
SYMATTR InstName X1
SYMBOL voltage -32 272 R0
WINDOW 123 0 0 Left 0
WINDOW 39 0 0 Left 0
SYMATTR InstName V1
SYMATTR Value PULSE(0 3.3 5n 100p 100p 50n 100n 1)
SYMBOL voltage -352 64 R0
WINDOW 123 0 0 Left 0
WINDOW 39 0 0 Left 0
SYMATTR InstName V2
SYMATTR Value 3.3
SYMBOL CLA-4bit 480 112 R0
SYMATTR InstName X2
SYMBOL CLA-8bit 1168 -112 R0
SYMATTR InstName X3
SYMBOL CLA-8bit 1168 688 R0
SYMATTR InstName X4
TEXT -576 312 Left 2 !.tran 0 15n 0 10p
TEXT -576 344 Left 2 !.inc ..\\..\\gf180\\cmos_tt.txt
TEXT -216 496 Left 2 !.meas TRAN tphi1_A TRIG V(b3)=1.65 RISE=1 TARG V(co2)=1.65 RISE=1
