Version 4
SHEET 1 2824 1224
WIRE -1888 -160 -1968 -160
WIRE -1808 -160 -1888 -160
WIRE -1888 -128 -1888 -160
WIRE -144 96 -256 96
WIRE -96 96 -144 96
WIRE 16 96 -32 96
WIRE 288 96 176 96
WIRE 336 96 288 96
WIRE 448 96 400 96
WIRE -256 160 -256 96
WIRE -144 160 -144 96
WIRE 176 160 176 96
WIRE 288 160 288 96
WIRE -256 272 -256 240
WIRE -144 272 -144 224
WIRE -144 272 -256 272
WIRE 176 272 176 240
WIRE 288 272 288 224
WIRE 288 272 176 272
WIRE -144 320 -144 272
WIRE 288 320 288 272
FLAG -1360 528 0
FLAG -1872 528 0
FLAG -1872 448 CK_MASTER
FLAG -1136 528 0
FLAG -1136 448 Vdd
FLAG -1888 -48 0
FLAG -2048 -160 Vip1
FLAG -1728 -160 Vim1
FLAG -1360 448 Vocm_target
FLAG -240 -128 Vocm_target
FLAG 16 -256 Vdd
FLAG -240 -176 Vipx1
FLAG -240 -208 Vimx1
FLAG -240 -256 CK_MASTER
FLAG 16 -176 Vop1
FLAG 16 -208 Vom1
FLAG -144 320 Vip1
FLAG 16 96 Vom1
FLAG -144 96 Vipx1
FLAG 288 320 Vim1
FLAG 448 96 Vop1
FLAG 288 96 Vimx1
SYMBOL voltage -1360 432 R0
WINDOW 123 0 0 Left 0
WINDOW 39 0 0 Left 0
SYMATTR InstName V1
SYMATTR Value 1.65
SYMBOL ota_v4 -112 -192 R0
SYMATTR InstName X1
SYMBOL voltage -1872 432 R0
WINDOW 123 0 0 Left 0
WINDOW 39 0 0 Left 0
SYMATTR InstName V2
SYMATTR Value PULSE(3.3 3.3 0 1n 1n 50n 100n)
SYMBOL voltage -1136 432 R0
WINDOW 123 24 124 Left 2
WINDOW 39 0 0 Left 0
SYMATTR InstName V3
SYMATTR Value 3.3
SYMBOL voltage -1888 -144 R0
WINDOW 123 24 124 Left 2
WINDOW 39 0 0 Left 0
SYMATTR Value2 AC 0
SYMATTR InstName V4
SYMATTR Value {Vicm}
SYMBOL voltage -2064 -160 R270
WINDOW 0 32 56 VTop 2
WINDOW 3 7 -309 VBottom 2
WINDOW 123 -58 58 VBottom 2
WINDOW 39 0 0 Left 0
SYMATTR InstName V5
SYMATTR Value PULSE(0 {vid/2} 2u 1n 1n 2u 100u)
SYMATTR Value2 AC 0
SYMBOL voltage -1824 -160 R270
WINDOW 0 32 56 VTop 2
WINDOW 3 7 435 VBottom 2
WINDOW 123 -60 56 VBottom 2
WINDOW 39 0 0 Left 0
SYMATTR InstName V6
SYMATTR Value PULSE(0 {vid/2} 2u 1n 1n 2u 100u)
SYMATTR Value2 AC 0
SYMBOL res -272 144 R0
SYMATTR InstName R1
SYMATTR Value 100G
SYMBOL res 160 144 R0
SYMATTR InstName R2
SYMATTR Value 100G
SYMBOL cap -160 160 R0
SYMATTR InstName C1
SYMATTR Value {Cs}
SYMBOL cap 272 160 R0
SYMATTR InstName C2
SYMATTR Value {Cs}
SYMBOL cap -32 80 R90
WINDOW 0 0 32 VBottom 2
WINDOW 3 32 32 VTop 2
SYMATTR InstName C3
SYMATTR Value {Cf}
SYMBOL cap 400 80 R90
WINDOW 0 0 32 VBottom 2
WINDOW 3 32 32 VTop 2
SYMATTR InstName C4
SYMATTR Value {Cf}
TEXT -1200 -568 Left 2 !.inc ..\\..\\gf180\\cmos_tt.txt
TEXT -1680 -464 Left 2 !.param vid=0 Vicm=1.7
TEXT -144 -808 Left 2 !.param Cs=20f Cf=91f
TEXT -1184 -448 Left 2 !.ac dec 1000 1 10G
TEXT -144 800 Left 2 !.meas AC fc WHEN mag(((V(tv_num)/V(tv_den))*(V(ti_num)/V(ti_den))-1)/((V(tv_num)/V(tv_den))+(V(ti_num)/V(ti_den))+2))=1 FALL=1\n \n.meas AC phT FIND (((V(tv_num)/V(tv_den))*(V(ti_num)/V(ti_den))-1)/((V(tv_num)/V(tv_den))+(V(ti_num)/V(ti_den))+2)) WHEN mag(((V(tv_num)/V(tv_den))*(V(ti_num)/V(ti_den))-1)/((V(tv_num)/V(tv_den))+(V(ti_num)/V(ti_den))+2))=1 FALL=1\n.meas AC pm PARAM 180+phT
TEXT -1176 -416 Left 2 ;.tran 3u
TEXT -2160 120 Left 2 ;.dc param vid -40m 40m 100u
TEXT -1408 872 Left 2 !* 1. Find the starting baseline right before the step\n.meas tran V_base FIND V(vop1,vom1) AT=1.9u\n \n* 2. Find the settled final value long after the step\n.meas tran V_final FIND V(vop1,vom1) AT=2.9u\n \n* 3. Calculate the total swing and the 10% / 90% thresholds\n.meas tran V_swing PARAM V_final-V_base\n.meas tran V10 PARAM V_base + 0.1*V_swing\n.meas tran V90 PARAM V_base + 0.9*V_swing\n \n* 4. Measure the time between the calculated thresholds\n.meas tran true_rise_time TRIG V(vop1,vom1) VAL=V10 RISE=1 TARG V(vop1,vom1) VAL=V90 RISE=1
