Version 4
SHEET 1 880 680
SYMBOL DFF 128 96 R0
SYMATTR InstName X1
