Version 4
SHEET 1 5060 1936
WIRE 272 960 384 944
WIRE 368 992 272 992
WIRE 736 992 528 992
WIRE 16 1008 112 992
WIRE 368 1008 368 992
WIRE 448 1008 368 1008
WIRE 528 1008 528 992
WIRE 528 1008 448 1008
WIRE 112 1024 96 1024
WIRE -464 1216 -464 1168
WIRE -464 1232 -464 1216
WIRE -464 1472 -464 1424
WIRE -464 1488 -464 1472
FLAG 96 1024 CK
FLAG 384 944 vdd
FLAG 448 1008 qff
FLAG -464 1296 0
FLAG -464 1168 D
FLAG 16 1008 D
FLAG -464 1552 0
FLAG -464 1424 CK
FLAG -1504 -176 0
FLAG -1504 -256 vdd
FLAG 896 992 vdd
SYMBOL voltage -464 1200 R0
WINDOW 123 0 0 Left 0
WINDOW 39 0 0 Left 0
SYMATTR InstName V1
SYMATTR Value PULSE(0 3.3 {TCK_EDGE - TSU} 1p 1p 100n 200n)
SYMBOL voltage -464 1456 R0
WINDOW 123 0 0 Left 0
WINDOW 39 0 0 Left 0
SYMATTR InstName V2
SYMATTR Value PULSE(0 3.3 {TCK_EDGE} 1p 1p 5n 20n)
SYMBOL voltage -1504 -272 R0
WINDOW 123 0 0 Left 0
WINDOW 39 0 0 Left 0
SYMATTR InstName V3
SYMATTR Value 3.3
SYMBOL 24X6MUC 816 1440 R0
SYMATTR InstName X2
SYMBOL DFF 192 992 R0
SYMATTR InstName X1
TEXT -136 392 Left 2 !.tran 0 30n 0 10p
TEXT -240 440 Left 2 !.inc ..\\..\\gf180\\cmos_tt.txt
TEXT 3856 -248 Left 2 !.param Xold_0=0 Xold_1=0 Xold_2=0 Xold_3=0 Xold_4=0 Xold_5=3.3\n.param Xnew_0=0 Xnew_1=0 Xnew_2=0 Xnew_3=0 Xnew_4=0 Xnew_5=3.3
TEXT 3856 -96 Left 2 ;.tran 0 10n 0 10p
TEXT 3848 -16 Left 2 !.inc ..\\..\\gf180\\cmos_tt.txt
TEXT 1336 1224 Left 2 !.param TCK_EDGE=10n         ; the capturing clock edge, fixed\n \n.param TSU =1.5e-10
TEXT 1232 1416 Left 2 !.measure tran tcq TRIG V(CK) VAL=1.65 RISE=1 TD={TCK_EDGE-1n} TARG V(qff) VAL=1.65 RISE=1
