Version 4
SHEET 1 2680 1608
WIRE -2032 -208 -2112 -208
WIRE -1952 -208 -2032 -208
WIRE -2032 -176 -2032 -208
FLAG -1504 480 0
FLAG -2016 480 0
FLAG -2016 400 CK_MASTER
FLAG -1280 480 0
FLAG -1280 400 Vdd
FLAG -2032 -96 0
FLAG -2192 -208 Vip1
FLAG -1872 -208 Vim1
FLAG -1504 400 Vocm_target
FLAG -384 -176 Vocm_target
FLAG -128 -304 Vdd
FLAG -384 -224 Vipx1
FLAG -384 -256 Vimx1
FLAG -384 -304 CK_MASTER
FLAG -128 -224 Vop1
FLAG -128 -256 Vom1
SYMBOL voltage -1504 384 R0
WINDOW 123 0 0 Left 0
WINDOW 39 0 0 Left 0
SYMATTR InstName V1
SYMATTR Value 1.65
SYMBOL ota_v4 -256 -240 R0
SYMATTR InstName X1
SYMBOL voltage -2016 384 R0
WINDOW 123 0 0 Left 0
WINDOW 39 0 0 Left 0
SYMATTR InstName V2
SYMATTR Value PULSE(3.3 3.3 0 1n 1n 50n 100n)
SYMBOL voltage -1280 384 R0
WINDOW 123 24 124 Left 2
WINDOW 39 0 0 Left 0
SYMATTR InstName V3
SYMATTR Value 3.3
SYMBOL voltage -2032 -192 R0
WINDOW 123 24 124 Left 2
WINDOW 39 0 0 Left 0
SYMATTR Value2 AC {ac_vicm}
SYMATTR InstName V4
SYMATTR Value {Vicm}
SYMBOL voltage -2208 -208 R270
WINDOW 0 32 56 VTop 2
WINDOW 3 7 -309 VBottom 2
WINDOW 123 -58 58 VBottom 2
WINDOW 39 0 0 Left 0
SYMATTR InstName V5
SYMATTR Value {vid/2}
SYMATTR Value2 AC {ac_vid/2}
SYMBOL voltage -1968 -208 R270
WINDOW 0 32 56 VTop 2
WINDOW 3 7 435 VBottom 2
WINDOW 123 -60 56 VBottom 2
WINDOW 39 0 0 Left 0
SYMATTR InstName V6
SYMATTR Value {vid/2}
SYMATTR Value2 AC {ac_vid/2}
TEXT -1344 -616 Left 2 !.inc ..\\..\\gf180\\cmos_tt.txt
TEXT -1992 -528 Left 2 !.param vid=0 Vicm=1.7 ac_vid=1 ac_vicm=0
TEXT -1328 -496 Left 2 ;.ac dec 1000 1 10G
TEXT -288 752 Left 2 !.meas AC fc WHEN mag(((V(tv_num)/V(tv_den))*(V(ti_num)/V(ti_den))-1)/((V(tv_num)/V(tv_den))+(V(ti_num)/V(ti_den))+2))=1 FALL=1\n \n.meas AC phT FIND (((V(tv_num)/V(tv_den))*(V(ti_num)/V(ti_den))-1)/((V(tv_num)/V(tv_den))+(V(ti_num)/V(ti_den))+2)) WHEN mag(((V(tv_num)/V(tv_den))*(V(ti_num)/V(ti_den))-1)/((V(tv_num)/V(tv_den))+(V(ti_num)/V(ti_den))+2))=1 FALL=1\n.meas AC pm PARAM 180+phT
TEXT -1320 -464 Left 2 !.tran 3u
TEXT -2304 72 Left 2 ;.dc param vid -40m 40m 100u
TEXT -256 1192 Left 2 !.inc ..\\..\\gf180\\cmos_tt.txt
TEXT 1136 1408 Left 2 ;.ac dec 1000 1 10G
TEXT 1136 1448 Left 2 ;.dc param vid -40m 40m 100u
TEXT -224 1040 Left 2 !.meas dc_gain max mag(V(vop)-V(vom))\n.meas ac bw find mag(V(vop)-V(vom)) when mag(V(vop)-V(vom))=dc_gain/sqrt(2)\n.meas GBW dc_gain * bw
TEXT 1136 1488 Left 2 ;.noise V(vop,vom) V3 dec 1000 1 30k
TEXT 1136 1536 Left 2 !.meas noise VNOISE_RMS integ V(onoise)\n.meas DC vo_swing FIND V(vop,vom) WHEN deriv(V(vop,vom))=500\n.meas ac av_dc_dm AVG V(vop,vom) from=1 to=10
TEXT 1136 1376 Left 2 ;.op
TEXT 272 1376 Left 2 !.measure tran iavg AVG i(V1) from=4u to=5u\n.measure tran iclk_phi2_avg AVG i(V6) from=4u to=5u\n.measure tran iclk_phi1_avg AVG i(V7) from=4u to=5u\n \n.measure tran pclk2 PARAM='-iclk_phi2_avg*3.3'\n.measure tran pclk1 PARAM='-iclk_phi1_avg*3.3'\n.measure tran pavg PARAM='-iavg*3.3'\n.measure tran ptot PARAM='pavg+pclk1+pclk2'
