Version 4
SHEET 1 880 680
SYMBOL FAX1 80 144 R0
SYMATTR InstName X1
SYMBOL FAX1 304 144 R0
SYMATTR InstName X2
SYMBOL FAX1 512 144 R0
SYMATTR InstName X3
SYMBOL FAX1 736 144 R0
SYMATTR InstName X4
SYMBOL FAX1 80 368 R0
SYMATTR InstName X5
SYMBOL FAX1 304 368 R0
SYMATTR InstName X6
SYMBOL FAX1 512 368 R0
SYMATTR InstName X7
SYMBOL FAX1 736 368 R0
SYMATTR InstName X8
