Version 4
SHEET 1 3424 2852
WIRE 1664 128 1600 128
WIRE 1152 144 1104 144
WIRE 1664 176 1600 176
WIRE 1152 192 1104 192
WIRE 1664 224 1600 224
WIRE 1152 240 1104 240
WIRE 1664 272 1600 272
WIRE 1152 288 1104 288
WIRE 1664 320 1600 320
WIRE 1152 336 1104 336
WIRE 1664 368 1600 368
WIRE 1152 384 1104 384
WIRE 1152 496 1088 496
WIRE 1664 496 1600 496
WIRE 1152 544 1088 544
WIRE 1664 544 1600 544
WIRE 1152 592 1088 592
WIRE 1664 592 1600 592
WIRE 1152 640 1088 640
WIRE 1664 640 1600 640
WIRE -784 688 -880 688
WIRE 1152 688 1088 688
WIRE 1664 688 1600 688
WIRE -784 720 -880 720
WIRE 1152 736 1088 736
WIRE 1664 736 1600 736
WIRE -784 752 -880 752
WIRE -784 784 -880 784
WIRE -784 816 -880 816
WIRE -784 848 -880 848
WIRE -784 960 -880 960
WIRE -784 992 -880 992
WIRE -784 1024 -880 1024
WIRE -784 1056 -880 1056
WIRE -784 1088 -880 1088
WIRE -784 1120 -880 1120
FLAG -880 688 Xold_0
IOPIN -880 688 In
FLAG -880 720 Xold_1
IOPIN -880 720 In
FLAG -880 752 Xold_2
IOPIN -880 752 In
FLAG -880 784 Xold_3
IOPIN -880 784 In
FLAG -880 816 Xold_4
IOPIN -880 816 In
FLAG -880 848 Xold_5
IOPIN -880 848 In
FLAG -880 960 Xnew_0
IOPIN -880 960 In
FLAG -880 992 Xnew_1
IOPIN -880 992 In
FLAG -880 1024 Xnew_2
IOPIN -880 1024 In
FLAG -880 1056 Xnew_3
IOPIN -880 1056 In
FLAG -880 1088 Xnew_4
IOPIN -880 1088 In
FLAG -880 1120 Xnew_5
IOPIN -880 1120 In
FLAG -128 800 S1_0
FLAG -128 832 S1_1
FLAG -128 864 S1_2
FLAG -128 896 S1_3
FLAG -128 928 S1_4
FLAG -128 960 S1_5
FLAG -128 992 S1_6
FLAG -128 1024 S1_7
FLAG 160 560 Xold_0
FLAG 160 592 Xold_1
FLAG 160 624 Xold_2
FLAG 160 656 Xold_3
FLAG 160 688 Xold_4
FLAG 160 720 Xold_5
FLAG 160 1248 Xnew_0
FLAG 160 1280 Xnew_1
FLAG 160 1312 Xnew_2
FLAG 160 1344 Xnew_3
FLAG 160 1376 Xnew_4
FLAG 160 1408 Xnew_5
FLAG -272 864 0
FLAG -272 896 0
FLAG -272 1136 0
FLAG -272 1168 0
FLAG 160 752 0
FLAG 160 528 0
FLAG 160 1440 0
FLAG 160 1216 0
FLAG 1152 144 phi0_0
IOPIN 1152 144 Out
FLAG 1152 192 phi0_1
IOPIN 1152 192 Out
FLAG 1152 240 phi0_2
IOPIN 1152 240 Out
FLAG 1152 288 phi0_3
IOPIN 1152 288 Out
FLAG 1152 336 phi0_4
IOPIN 1152 336 Out
FLAG 1152 384 phi0_5
IOPIN 1152 384 Out
FLAG 1664 128 phi1_0
IOPIN 1664 128 Out
FLAG 1664 176 phi1_1
IOPIN 1664 176 Out
FLAG 1664 224 phi1_2
IOPIN 1664 224 Out
FLAG 1664 272 phi1_3
IOPIN 1664 272 Out
FLAG 1664 320 phi1_4
IOPIN 1664 320 Out
FLAG 1664 368 phi1_5
IOPIN 1664 368 Out
FLAG 1664 496 phi3_0
IOPIN 1664 496 Out
FLAG 1664 544 phi3_1
IOPIN 1664 544 Out
FLAG 1664 592 phi3_2
IOPIN 1664 592 Out
FLAG 1664 640 phi3_3
IOPIN 1664 640 Out
FLAG 1664 688 phi3_4
IOPIN 1664 688 Out
FLAG 1664 736 phi3_5
IOPIN 1664 736 Out
FLAG 1152 496 phi2_0
IOPIN 1152 496 Out
FLAG 1152 544 phi2_1
IOPIN 1152 544 Out
FLAG 1152 592 phi2_2
IOPIN 1152 592 Out
FLAG 1152 640 phi2_3
IOPIN 1152 640 Out
FLAG 1152 688 phi2_4
IOPIN 1152 688 Out
FLAG 1152 736 phi2_5
IOPIN 1152 736 Out
FLAG 1024 144 Xold_0
FLAG 1024 192 Xold_1
FLAG 1024 240 Xold_2
FLAG 1024 288 Xold_3
FLAG 1024 336 Xold_4
FLAG 1024 384 Xold_5
FLAG 1088 496 S1_1
FLAG 1088 544 S1_2
FLAG 1088 592 S1_3
FLAG 1088 640 S1_4
FLAG 1088 688 S1_5
FLAG 1088 736 S1_6
FLAG 304 384 S2_0
FLAG 304 416 S2_1
FLAG 304 448 S2_2
FLAG 304 480 S2_3
FLAG 304 512 S2_4
FLAG 304 544 S2_5
FLAG 304 576 S2_6
FLAG 304 608 S2_7
FLAG 304 1072 S3_0
FLAG 304 1104 S3_1
FLAG 304 1136 S3_2
FLAG 304 1168 S3_3
FLAG 304 1200 S3_4
FLAG 304 1232 S3_5
FLAG 304 1264 S3_6
FLAG 304 1296 S3_7
FLAG 1600 128 S2_2
FLAG 1600 176 S2_3
FLAG 1600 224 S2_4
FLAG 1600 272 S2_5
FLAG 1600 320 S2_6
FLAG 1600 368 S2_7
FLAG 1600 496 S3_2
FLAG 1600 544 S3_3
FLAG 1600 592 S3_4
FLAG 1600 640 S3_5
FLAG 1600 688 S3_6
FLAG 1600 736 S3_7
FLAG 160 256 S1_0
FLAG 160 288 S1_1
FLAG 160 320 S1_2
FLAG 160 352 S1_3
FLAG 160 384 S1_4
FLAG 160 416 S1_5
FLAG 160 448 S1_6
FLAG 160 480 S1_7
FLAG 160 944 S1_0
FLAG 160 976 S1_1
FLAG 160 1008 S1_2
FLAG 160 1040 S1_3
FLAG 160 1072 S1_4
FLAG 160 1104 S1_5
FLAG 160 1136 S1_6
FLAG 160 1168 S1_7
FLAG -272 624 Vdd
IOPIN -272 624 In
FLAG -128 624 Vdd
IOPIN -128 624 In
FLAG 160 896 Vdd
IOPIN 160 896 In
FLAG 304 896 Vdd
IOPIN 304 896 In
FLAG 160 208 Vdd
IOPIN 160 208 In
FLAG 304 208 Vdd
IOPIN 304 208 In
FLAG -784 688 Xold_0
FLAG -784 752 Xold_2
FLAG -784 784 Xold_3
FLAG -784 816 Xold_4
FLAG -784 848 Xold_5
FLAG -784 960 Xnew_0
FLAG -784 992 Xnew_1
FLAG -784 1024 Xnew_2
FLAG -784 1056 Xnew_3
FLAG -784 1088 Xnew_4
FLAG -784 1120 Xnew_5
FLAG -784 720 Xold_1
FLAG -272 672 Xold_0
FLAG -272 736 Xold_2
FLAG -272 768 Xold_3
FLAG -272 800 Xold_4
FLAG -272 832 Xold_5
FLAG -272 704 Xold_1
FLAG -272 944 Xnew_0
FLAG -272 976 Xnew_1
FLAG -272 1008 Xnew_2
FLAG -272 1040 Xnew_3
FLAG -272 1072 Xnew_4
FLAG -272 1104 Xnew_5
SYMBOL 8RCAX1 -208 896 R0
SYMATTR InstName X1
SYMBOL 8RCAX1 224 480 R0
SYMATTR InstName X2
SYMBOL 8RCAX1 224 1168 R0
SYMATTR InstName X3
SYMBOL voltage 1120 144 R90
WINDOW 123 0 0 Left 0
WINDOW 39 0 0 Left 0
SYMATTR InstName V1
SYMATTR Value 0
SYMBOL voltage 1120 192 R90
WINDOW 123 0 0 Left 0
WINDOW 39 0 0 Left 0
SYMATTR InstName V2
SYMATTR Value 0
SYMBOL voltage 1120 240 R90
WINDOW 123 0 0 Left 0
WINDOW 39 0 0 Left 0
SYMATTR InstName V3
SYMATTR Value 0
SYMBOL voltage 1120 288 R90
WINDOW 123 0 0 Left 0
WINDOW 39 0 0 Left 0
SYMATTR InstName V4
SYMATTR Value 0
SYMBOL voltage 1120 336 R90
WINDOW 123 0 0 Left 0
WINDOW 39 0 0 Left 0
SYMATTR InstName V5
SYMATTR Value 0
SYMBOL voltage 1120 384 R90
WINDOW 123 0 0 Left 0
WINDOW 39 0 0 Left 0
SYMATTR InstName V6
SYMATTR Value 0
TEXT 1008 88 Left 2 ;PHI_0 OUTPUTS
TEXT 1544 64 Left 2 ;PHI_1 OUTPUTS
TEXT 1544 448 Left 2 ;PHI_3 OUTPUTS
TEXT 1032 456 Left 2 ;PHI_2 OUTPUTS
TEXT -1168 760 Left 2 ;X[k] INPUTS
TEXT -1200 1016 Left 2 ;X[k+1] INPUTS
