Version 4
SHEET 1 908 1360
WIRE -16 544 -96 544
WIRE -256 576 -400 576
WIRE -16 576 -96 576
WIRE -256 608 -400 608
WIRE -16 608 -96 608
WIRE -16 640 -96 640
FLAG -16 544 PHI_0
IOPIN -16 544 Out
FLAG -16 576 PHI_1
IOPIN -16 576 Out
FLAG -16 608 PHI_2
IOPIN -16 608 Out
FLAG -16 640 PHI_3
IOPIN -16 640 Out
FLAG -512 608 CK
IOPIN -512 608 In
FLAG -512 576 Vdd
IOPIN -512 576 In
FLAG -256 544 Vdd
IOPIN -256 544 In
SYMBOL 2bCOUNT -464 592 R0
WINDOW 0 -1 -62 Bottom 2
SYMATTR InstName X1
SYMBOL DECODER -176 592 R0
SYMATTR InstName X2
TEXT -560 680 Left 2 ;2BIT COUNTER
TEXT -232 704 Left 2 ;DECODER
TEXT 160 560 Left 2 ;OUTPUTS THE CURRENT PHASE OF THE COUNTER
