Version 4
SHEET 1 880 1064
FLAG 688 224 vdd
IOPIN 688 224 In
FLAG 688 400 vdd
FLAG 688 576 vdd
FLAG 688 752 vdd
FLAG 688 928 vdd
FLAG 688 256 q1
IOPIN 688 256 Out
FLAG 688 432 q2
IOPIN 688 432 Out
FLAG 688 608 q3
IOPIN 688 608 Out
FLAG 688 784 q4
IOPIN 688 784 Out
FLAG 688 960 q5
IOPIN 688 960 Out
FLAG 688 48 vdd
IOPIN 688 48 In
FLAG 528 112 ck
IOPIN 528 112 In
FLAG 688 80 q0
IOPIN 688 80 Out
FLAG 528 288 ck
IOPIN 528 288 In
FLAG 528 464 ck
IOPIN 528 464 In
FLAG 528 640 ck
IOPIN 528 640 In
FLAG 528 816 ck
IOPIN 528 816 In
FLAG 528 992 ck
IOPIN 528 992 In
FLAG 528 80 d0
IOPIN 528 80 In
FLAG 528 256 d1
IOPIN 528 256 In
FLAG 528 432 d2
IOPIN 528 432 In
FLAG 528 608 d3
IOPIN 528 608 In
FLAG 528 784 d4
IOPIN 528 784 In
FLAG 528 960 d5
IOPIN 528 960 In
SYMBOL SDFF_IMPROVED 608 80 R0
SYMATTR InstName X1
SYMBOL SDFF_IMPROVED 608 256 R0
SYMATTR InstName X2
SYMBOL SDFF_IMPROVED 608 432 R0
SYMATTR InstName X3
SYMBOL SDFF_IMPROVED 608 608 R0
SYMATTR InstName X4
SYMBOL SDFF_IMPROVED 608 784 R0
SYMATTR InstName X5
SYMBOL SDFF_IMPROVED 608 960 R0
SYMATTR InstName X6
