Version 4
SHEET 1 880 1064
WIRE 528 80 272 80
WIRE 528 256 272 256
WIRE 528 432 272 432
WIRE 528 608 272 608
WIRE 528 784 272 784
WIRE 528 960 272 960
FLAG 688 224 vdd
IOPIN 688 224 In
FLAG 688 400 vdd
FLAG 688 576 vdd
FLAG 688 752 vdd
FLAG 688 928 vdd
FLAG 688 256 q1
IOPIN 688 256 Out
FLAG 688 432 q2
IOPIN 688 432 Out
FLAG 688 608 q3
IOPIN 688 608 Out
FLAG 688 784 q4
IOPIN 688 784 Out
FLAG 688 960 q5
IOPIN 688 960 Out
FLAG 176 64 d0
IOPIN 176 64 In
FLAG 688 48 vdd
IOPIN 688 48 In
FLAG 528 112 ck
IOPIN 528 112 In
FLAG 688 80 q0
IOPIN 688 80 Out
FLAG 176 16 EN
IOPIN 176 16 In
FLAG 272 16 vdd
IOPIN 272 16 In
FLAG 176 96 q0
IOPIN 176 96 Out
FLAG 176 240 d1
IOPIN 176 240 In
FLAG 528 288 ck
IOPIN 528 288 In
FLAG 176 192 EN
IOPIN 176 192 In
FLAG 272 192 vdd
IOPIN 272 192 In
FLAG 176 272 q1
IOPIN 176 272 Out
FLAG 176 416 d2
IOPIN 176 416 In
FLAG 528 464 ck
IOPIN 528 464 In
FLAG 176 368 EN
IOPIN 176 368 In
FLAG 272 368 vdd
IOPIN 272 368 In
FLAG 176 448 q2
IOPIN 176 448 Out
FLAG 176 592 d3
IOPIN 176 592 In
FLAG 528 640 ck
IOPIN 528 640 In
FLAG 176 544 EN
IOPIN 176 544 In
FLAG 272 544 vdd
IOPIN 272 544 In
FLAG 176 624 q3
IOPIN 176 624 Out
FLAG 176 768 d4
IOPIN 176 768 In
FLAG 528 816 ck
IOPIN 528 816 In
FLAG 176 720 EN
IOPIN 176 720 In
FLAG 272 720 vdd
IOPIN 272 720 In
FLAG 176 800 q4
IOPIN 176 800 Out
FLAG 176 944 d5
IOPIN 176 944 In
FLAG 528 992 ck
IOPIN 528 992 In
FLAG 176 896 EN
IOPIN 176 896 In
FLAG 272 896 vdd
IOPIN 272 896 In
FLAG 176 976 q5
IOPIN 176 976 Out
SYMBOL 2x1_MUX 224 64 R0
SYMATTR InstName X7
SYMBOL 2x1_MUX 224 240 R0
SYMATTR InstName X8
SYMBOL 2x1_MUX 224 416 R0
SYMATTR InstName X9
SYMBOL 2x1_MUX 224 592 R0
SYMATTR InstName X10
SYMBOL 2x1_MUX 224 768 R0
SYMATTR InstName X11
SYMBOL 2x1_MUX 224 944 R0
SYMATTR InstName X12
SYMBOL DFF 608 80 R0
SYMATTR InstName X1
SYMBOL DFF 608 256 R0
SYMATTR InstName X2
SYMBOL DFF 608 432 R0
SYMATTR InstName X3
SYMBOL DFF 608 608 R0
SYMATTR InstName X4
SYMBOL DFF 608 784 R0
SYMATTR InstName X5
SYMBOL DFF 608 960 R0
SYMATTR InstName X6
