Version 4
SHEET 1 1180 2460
FLAG 656 944 0
FLAG 672 688 0
FLAG 672 448 0
FLAG 656 224 0
FLAG 656 0 0
FLAG 656 -240 0
FLAG 656 864 Xold_0
FLAG 672 608 Xold_1
FLAG 672 368 Xold_2
FLAG 656 144 Xold_3
FLAG 656 -80 Xold_4
FLAG 656 -320 Xold_5
FLAG -592 240 0
FLAG -480 240 0
FLAG -352 240 0
FLAG -240 240 0
FLAG -112 240 0
FLAG 0 240 0
FLAG -592 160 Xnew_0
FLAG -480 160 Xnew_1
FLAG -352 160 Xnew_2
FLAG -240 160 Xnew_3
FLAG -112 160 Xnew_4
FLAG 0 160 Xnew_5
FLAG -2496 -736 Xold_0
FLAG -2496 -672 Xold_2
FLAG -2496 -640 Xold_3
FLAG -2496 -608 Xold_4
FLAG -2496 -576 Xold_5
FLAG -2496 -432 Xnew_0
FLAG -2496 -400 Xnew_1
FLAG -2496 -368 Xnew_2
FLAG -2496 -336 Xnew_3
FLAG -2496 -304 Xnew_4
FLAG -2496 -272 Xnew_5
FLAG -2496 -704 Xold_1
FLAG -2272 -864 phi0_0
FLAG -2272 -832 phi0_1
FLAG -2272 -800 phi0_2
FLAG -2272 -768 phi0_3
FLAG -2272 -736 phi0_4
FLAG -2272 -704 phi0_5
FLAG -2272 -672 phi1_0
FLAG -2272 -640 phi1_1
FLAG -2272 -608 phi1_2
FLAG -2272 -576 phi1_3
FLAG -2272 -544 phi1_4
FLAG -2272 -512 phi1_5
FLAG -2272 -480 phi2_0
FLAG -2272 -448 phi2_1
FLAG -2272 -416 phi2_2
FLAG -2272 -384 phi2_3
FLAG -2272 -352 phi2_4
FLAG -2272 -320 phi2_5
FLAG -2272 -288 phi3_0
FLAG -2272 -256 phi3_1
FLAG -2272 -224 phi3_2
FLAG -2272 -192 phi3_3
FLAG -2272 -160 phi3_4
FLAG -2272 -128 phi3_5
FLAG -1232 720 0
FLAG -2496 -864 Vdd
FLAG -1232 640 Vdd
FLAG -1472 -1024 ck
FLAG -1312 -1088 Vdd
FLAG -1472 -848 ck
FLAG -1472 -880 phi0_2
FLAG -1312 -912 Vdd
FLAG -1072 -1024 ck
FLAG -1072 -1056 phi0_1
FLAG -912 -1088 Vdd
FLAG -1072 -848 ck
FLAG -1072 -880 phi0_3
FLAG -912 -912 Vdd
FLAG -1472 -624 ck
FLAG -1472 -656 phi1_0
FLAG -1312 -688 Vdd
FLAG -1472 -448 ck
FLAG -1472 -480 phi1_2
FLAG -1312 -512 Vdd
FLAG -1072 -624 ck
FLAG -1072 -656 phi1_1
FLAG -912 -688 Vdd
FLAG -1072 -448 ck
FLAG -1072 -480 phi1_3
FLAG -912 -512 Vdd
FLAG -1472 -240 ck
FLAG -1472 -272 phi2_0
FLAG -1312 -304 Vdd
FLAG -1472 -64 ck
FLAG -1472 -96 phi2_2
FLAG -1312 -128 Vdd
FLAG -1072 -240 ck
FLAG -1072 -272 phi2_1
FLAG -912 -304 Vdd
FLAG -1072 -64 ck
FLAG -1072 -96 phi2_3
FLAG -912 -128 Vdd
FLAG -1472 144 ck
FLAG -1472 112 phi3_0
FLAG -1312 80 Vdd
FLAG -1472 320 ck
FLAG -1472 288 phi3_2
FLAG -1312 256 Vdd
FLAG -1072 144 ck
FLAG -1072 112 phi3_1
FLAG -912 80 Vdd
FLAG -1072 320 ck
FLAG -1072 288 phi3_3
FLAG -912 256 Vdd
FLAG -1472 -1056 phi0_0
FLAG -3792 -112 0
FLAG -3792 -192 ck
FLAG -3040 -688 Xold_0
FLAG -3040 -720 Vdd
FLAG -3200 -656 ck
SYMBOL voltage 656 848 R0
WINDOW 123 0 0 Left 0
WINDOW 39 0 0 Left 0
SYMATTR InstName V1
SYMATTR Value PULSE(0 3.3 5n 100p 100p 50n 100n 1)
SYMBOL voltage 672 592 R0
WINDOW 123 0 0 Left 0
WINDOW 39 0 0 Left 0
SYMATTR InstName V2
SYMATTR Value PULSE(0 3.3 5n 100p 100p 50n 100n 1)
SYMBOL voltage 672 352 R0
WINDOW 123 0 0 Left 0
WINDOW 39 0 0 Left 0
SYMATTR InstName V3
SYMATTR Value PULSE(0 3.3 5n 100p 100p 50n 100n 1)
SYMBOL voltage 656 128 R0
WINDOW 123 0 0 Left 0
WINDOW 39 0 0 Left 0
SYMATTR InstName V4
SYMATTR Value PULSE(0 3.3 5n 100p 100p 50n 100n 1)
SYMBOL voltage 656 -96 R0
WINDOW 123 0 0 Left 0
WINDOW 39 0 0 Left 0
SYMATTR InstName V5
SYMATTR Value PULSE(0 3.3 5n 100p 100p 50n 100n 1)
SYMBOL voltage 656 -336 R0
WINDOW 123 0 0 Left 0
WINDOW 39 0 0 Left 0
SYMATTR InstName V6
SYMATTR Value PULSE(3.3 0 5n 100p 100p 50n 100n 1)
SYMBOL voltage -592 144 R0
WINDOW 123 0 0 Left 0
WINDOW 39 0 0 Left 0
SYMATTR InstName V7
SYMATTR Value {Xnew_0}
SYMBOL voltage -480 144 R0
WINDOW 123 0 0 Left 0
WINDOW 39 0 0 Left 0
SYMATTR InstName V8
SYMATTR Value {Xnew_1}
SYMBOL voltage -352 144 R0
WINDOW 123 0 0 Left 0
WINDOW 39 0 0 Left 0
SYMATTR InstName V9
SYMATTR Value {Xnew_2}
SYMBOL voltage -240 144 R0
WINDOW 123 0 0 Left 0
WINDOW 39 0 0 Left 0
SYMATTR InstName V10
SYMATTR Value {Xnew_3}
SYMBOL voltage -112 144 R0
WINDOW 123 0 0 Left 0
WINDOW 39 0 0 Left 0
SYMATTR InstName V11
SYMATTR Value {Xnew_4}
SYMBOL voltage 0 144 R0
WINDOW 123 0 0 Left 0
WINDOW 39 0 0 Left 0
SYMATTR InstName V12
SYMATTR Value {Xnew_5}
SYMBOL voltage -1232 624 R0
WINDOW 123 0 0 Left 0
WINDOW 39 0 0 Left 0
SYMATTR InstName V13
SYMATTR Value 3.3
SYMBOL DFF -1392 -1056 R0
SYMATTR InstName X1
SYMBOL DFF -1392 -880 R0
SYMATTR InstName X3
SYMBOL DFF -992 -1056 R0
SYMATTR InstName X4
SYMBOL DFF -992 -880 R0
SYMATTR InstName X5
SYMBOL DFF -1392 -656 R0
SYMATTR InstName X6
SYMBOL DFF -1392 -480 R0
SYMATTR InstName X7
SYMBOL DFF -992 -656 R0
SYMATTR InstName X8
SYMBOL DFF -992 -480 R0
SYMATTR InstName X9
SYMBOL DFF -1392 -272 R0
SYMATTR InstName X10
SYMBOL DFF -1392 -96 R0
SYMATTR InstName X11
SYMBOL DFF -992 -272 R0
SYMATTR InstName X12
SYMBOL DFF -992 -96 R0
SYMATTR InstName X13
SYMBOL DFF -1392 112 R0
SYMATTR InstName X14
SYMBOL DFF -1392 288 R0
SYMATTR InstName X15
SYMBOL DFF -992 112 R0
SYMATTR InstName X16
SYMBOL DFF -992 288 R0
SYMATTR InstName X17
SYMBOL fir_cla -2384 -496 R0
SYMATTR InstName X2
SYMBOL voltage -3792 -208 R0
SYMATTR InstName V15
SYMATTR Value PULSE(0 3.3 4n 1p 1p 20n 40n)
SYMBOL DFF -3120 -688 R0
SYMATTR InstName X18
TEXT -48 -664 Left 2 !.param Xold_0=0 Xold_1=0 Xold_2=0 Xold_3=0 Xold_4=0 Xold_5=3.3\n.param Xnew_0=0 Xnew_1=0 Xnew_2=0 Xnew_3=0 Xnew_4=0 Xnew_5=3.3
TEXT -48 -512 Left 2 !.tran 0 15n 0 10p
TEXT -56 -432 Left 2 !.inc ..\\..\\gf180\\cmos_tt.txt
TEXT -616 456 Left 2 !* Scenario A: x_old 011111->100000, x_new 100000. phi1: 31->32, phi1_5 rises.\n.measure tran tphi1_A TRIG V(xold_5) VAL=1.65 RISE=1 TARG V(phi1_5) VAL=1.65 RISE=1\n \n* Scenario B: x_old 000000->000001, x_new 111101. phi1: 15->16, phi1_4 rises.\n.measure tran tphi1_B TRIG V(xold_0) VAL=1.65 RISE=1 TARG V(phi1_4) VAL=1.65 RISE=1\n \n* Scenario C: x_old 111110->111111, x_new 000001. phi1: 47->48, phi1_4 rises.\n.measure tran tphi1_C TRIG V(xold_0) VAL=1.65 RISE=1 TARG V(phi1_4) VAL=1.65 RISE=1\n \n* Scenario D: x_old 100000->011111, x_new 100000. phi1: 32->31, phi1_5 falls.\n.measure tran tphi1_D TRIG V(xold_5) VAL=1.65 FALL=1 TARG V(phi1_5) VAL=1.65 FALL=2
TEXT -2576 -48 Left 2 ;ADDER\nSWITCH BETWEEN DIFFERENT VERSIONS
