Version 4
SHEET 1 880 680
WIRE 0 -64 0 -128
WIRE -16 -16 -80 -16
WIRE 144 -16 80 -16
WIRE -80 64 -80 -16
WIRE -80 64 -176 64
WIRE 144 64 144 -16
WIRE 240 64 144 64
WIRE -544 80 -544 64
WIRE -624 128 -688 128
WIRE -432 128 -464 128
WIRE -80 144 -80 64
WIRE -16 144 -80 144
WIRE 144 144 144 64
WIRE 144 144 80 144
WIRE 64 224 64 192
WIRE 64 224 -176 224
WIRE 240 224 240 64
WIRE 304 224 240 224
WIRE 64 256 64 224
WIRE -16 304 -80 304
WIRE 144 304 80 304
WIRE -560 336 -560 320
WIRE -640 384 -720 384
WIRE -432 384 -480 384
WIRE -80 384 -80 304
WIRE -80 384 -176 384
WIRE 144 384 144 304
WIRE 240 384 240 224
WIRE 240 384 144 384
WIRE -80 464 -80 384
WIRE -16 464 -80 464
WIRE 144 464 144 384
WIRE 144 464 80 464
WIRE 0 576 0 512
FLAG 32 144 0
FLAG 32 -16 Vdd
IOPIN 32 -16 In
FLAG 32 464 0
FLAG 32 304 Vdd
IOPIN 32 304 In
FLAG 0 576 B
IOPIN 0 576 In
FLAG 0 -128 B
IOPIN 0 -128 In
FLAG 304 224 OUT
IOPIN 304 224 Out
FLAG -544 176 0
FLAG -560 432 0
FLAG -544 64 Vdd
IOPIN -544 64 In
FLAG -560 320 Vdd
IOPIN -560 320 In
FLAG -720 384 B
IOPIN -720 384 In
FLAG -688 128 A
IOPIN -688 128 In
FLAG -432 128 A_bar
FLAG -432 384 B_bar
FLAG -176 384 A_bar
FLAG -176 224 B_bar
FLAG -176 64 A
IOPIN -176 64 In
SYMBOL nmos4 -16 192 R270
SYMATTR InstName M1
SYMATTR Value nmos_3p3
SYMATTR Value2 l='L' w='Wn' m='M'
SYMBOL pmos4 80 -64 R90
SYMATTR InstName M2
SYMATTR Value pmos_3p3
SYMATTR Value2 l='L' w='Wp' m='M'
SYMBOL nmos4 80 512 M270
SYMATTR InstName M3
SYMATTR Value nmos_3p3
SYMATTR Value2 l='L' w='Wn' m='M'
SYMBOL pmos4 -16 256 M90
SYMATTR InstName M4
SYMATTR Value pmos_3p3
SYMATTR Value2 l='L' w='Wp' m='M'
SYMBOL INVx1 -544 128 R0
SYMATTR InstName X1
SYMBOL INVx1 -560 384 R0
SYMATTR InstName X2
TEXT 384 -112 Left 2 !.param L=0.28u Wn=1u Wp=2u M=1
