Version 4.1
SHEET 1 3424 2852
WIRE 944 352 880 352
WIRE 592 368 544 368
WIRE 944 400 880 400
WIRE 592 416 544 416
WIRE 944 448 880 448
WIRE 592 464 544 464
WIRE 944 496 880 496
WIRE 592 512 544 512
WIRE 944 560 880 560
WIRE 592 592 544 592
WIRE 944 608 880 608
WIRE 592 640 544 640
WIRE -784 688 -880 688
WIRE -784 720 -880 720
WIRE -784 752 -880 752
WIRE -784 784 -880 784
WIRE 560 816 496 816
WIRE 944 816 880 816
WIRE 560 864 496 864
WIRE 944 864 880 864
WIRE 560 912 496 912
WIRE 944 912 880 912
WIRE -784 960 -880 960
WIRE 560 960 496 960
WIRE 944 960 880 960
WIRE -784 992 -880 992
WIRE -784 1024 -880 1024
WIRE 560 1024 496 1024
WIRE 944 1024 880 1024
WIRE -784 1056 -880 1056
WIRE 944 1072 880 1072
WIRE 560 1088 512 1088
FLAG -880 688 Xold_0
IOPIN -880 688 In
FLAG -880 720 Xold_1
IOPIN -880 720 In
FLAG -880 752 Xold_2
IOPIN -880 752 In
FLAG -880 784 Xold_3
IOPIN -880 784 In
FLAG -880 960 Xnew_0
IOPIN -880 960 In
FLAG -880 992 Xnew_1
IOPIN -880 992 In
FLAG -880 1024 Xnew_2
IOPIN -880 1024 In
FLAG -880 1056 Xnew_3
IOPIN -880 1056 In
FLAG -288 848 S1_0
FLAG -288 880 S1_1
FLAG -288 912 S1_2
FLAG -288 944 S1_3
FLAG -288 784 S1_4
FLAG -16 528 Xold_0
FLAG -16 560 Xold_1
FLAG -16 592 Xold_2
FLAG -16 624 Xold_3
FLAG -16 1120 Xnew_0
FLAG -16 1152 Xnew_1
FLAG -16 1184 Xnew_2
FLAG -16 1216 Xnew_3
FLAG -16 496 0
FLAG -16 1088 0
FLAG 592 368 phi0_0
IOPIN 592 368 Out
FLAG 592 416 phi0_1
IOPIN 592 416 Out
FLAG 592 464 phi0_2
IOPIN 592 464 Out
FLAG 592 512 phi0_3
IOPIN 592 512 Out
FLAG 592 592 phi0_4
IOPIN 592 592 Out
FLAG 592 640 phi0_5
IOPIN 592 640 Out
FLAG 944 352 phi1_0
IOPIN 944 352 Out
FLAG 944 400 phi1_1
IOPIN 944 400 Out
FLAG 944 448 phi1_2
IOPIN 944 448 Out
FLAG 944 496 phi1_3
IOPIN 944 496 Out
FLAG 944 560 phi1_4
IOPIN 944 560 Out
FLAG 944 608 phi1_5
IOPIN 944 608 Out
FLAG 944 816 phi3_0
IOPIN 944 816 Out
FLAG 944 864 phi3_1
IOPIN 944 864 Out
FLAG 944 912 phi3_2
IOPIN 944 912 Out
FLAG 944 960 phi3_3
IOPIN 944 960 Out
FLAG 944 1024 phi3_4
IOPIN 944 1024 Out
FLAG 944 1072 phi3_5
IOPIN 944 1072 Out
FLAG 560 816 phi2_0
IOPIN 560 816 Out
FLAG 560 864 phi2_1
IOPIN 560 864 Out
FLAG 560 912 phi2_2
IOPIN 560 912 Out
FLAG 560 960 phi2_3
IOPIN 560 960 Out
FLAG 560 1024 phi2_4
IOPIN 560 1024 Out
FLAG 560 1088 phi2_5
IOPIN 560 1088 Out
FLAG 464 368 Xold_0
FLAG 464 416 Xold_1
FLAG 464 464 Xold_2
FLAG 464 512 Xold_3
FLAG 496 816 S1_1
FLAG 496 864 S1_2
FLAG 496 912 S1_3
FLAG 496 960 S1_4
FLAG 496 1024 S1_0
FLAG 128 416 S2_0
FLAG 128 448 S2_1
FLAG 128 480 S2_2
FLAG 128 512 S2_3
FLAG 128 544 S2_4
FLAG 128 352 S2_5
FLAG 128 1008 S3_0
FLAG 128 1040 S3_1
FLAG 128 1072 S3_2
FLAG 128 1104 S3_3
FLAG 128 1136 S3_4
FLAG 128 944 S3_5
FLAG 880 352 S2_2
FLAG 880 400 S2_3
FLAG 880 448 S2_4
FLAG 880 496 S2_5
FLAG 880 560 S2_0
FLAG 880 608 S2_1
FLAG 880 816 S3_2
FLAG 880 864 S3_3
FLAG 880 912 S3_4
FLAG 880 960 S3_5
FLAG 880 1024 S3_0
FLAG 880 1072 S3_1
FLAG -16 304 S1_0
FLAG -16 336 S1_1
FLAG -16 368 S1_2
FLAG -16 400 S1_3
FLAG -16 432 S1_4
FLAG -16 896 S1_0
FLAG -16 928 S1_1
FLAG -16 960 S1_2
FLAG -16 992 S1_3
FLAG -16 1024 S1_4
FLAG -288 688 Vdd
IOPIN -288 688 In
FLAG -16 848 Vdd
IOPIN -16 848 In
FLAG 128 848 Vdd
IOPIN 128 848 In
FLAG -16 256 Vdd
IOPIN -16 256 In
FLAG 128 256 Vdd
IOPIN 128 256 In
FLAG -784 688 Xold_0
FLAG -784 752 Xold_2
FLAG -784 784 Xold_3
FLAG -784 960 Xnew_0
FLAG -784 992 Xnew_1
FLAG -784 1024 Xnew_2
FLAG -784 1056 Xnew_3
FLAG -784 720 Xold_1
FLAG -432 704 Xold_0
FLAG -432 768 Xold_2
FLAG -432 800 Xold_3
FLAG -432 736 Xold_1
FLAG -432 864 Xnew_0
FLAG -432 896 Xnew_1
FLAG -432 928 Xnew_2
FLAG -432 960 Xnew_3
FLAG -288 720 0
FLAG 128 288 0
FLAG 128 880 0
FLAG 464 592 0
FLAG 464 640 0
FLAG 432 1088 0
SYMBOL voltage 560 368 R90
WINDOW 123 0 0 Left 0
WINDOW 39 0 0 Left 0
SYMATTR InstName V1
SYMATTR Value 0
SYMBOL voltage 560 416 R90
WINDOW 123 0 0 Left 0
WINDOW 39 0 0 Left 0
SYMATTR InstName V2
SYMATTR Value 0
SYMBOL voltage 560 464 R90
WINDOW 123 0 0 Left 0
WINDOW 39 0 0 Left 0
SYMATTR InstName V3
SYMATTR Value 0
SYMBOL voltage 560 512 R90
WINDOW 123 0 0 Left 0
WINDOW 39 0 0 Left 0
SYMATTR InstName V4
SYMATTR Value 0
SYMBOL voltage 560 592 R90
WINDOW 123 0 0 Left 0
WINDOW 39 0 0 Left 0
SYMATTR InstName V5
SYMATTR Value 0
SYMBOL voltage 560 640 R90
WINDOW 123 0 0 Left 0
WINDOW 39 0 0 Left 0
SYMATTR InstName V6
SYMATTR Value 0
SYMBOL CLA-4bit-NoCin -368 832 R0
SYMATTR InstName X1
SYMBOL CLA-5bit 48 448 R0
SYMATTR InstName X2
SYMBOL CLA-5bit 48 1040 R0
SYMATTR InstName X3
SYMBOL voltage 528 1088 R90
WINDOW 123 0 0 Left 0
WINDOW 39 0 0 Left 0
SYMATTR InstName V7
SYMATTR Value 0
TEXT 464 296 Left 2 ;PHI_0 OUTPUTS
TEXT 824 296 Left 2 ;PHI_1 OUTPUTS
TEXT 824 768 Left 2 ;PHI_3 OUTPUTS
TEXT 440 776 Left 2 ;PHI_2 OUTPUTS
TEXT -1168 760 Left 2 ;X[k] INPUTS
TEXT -1200 1016 Left 2 ;X[k+1] INPUTS
TEXT 432 1192 Left 2 ;Output [5:0]:
TEXT 456 1224 Left 2 ;- Output[3:0] -> 0 a 15\n- Output[5:4] -> 00=>0; 01=>1/4; 10=>1/2; 11=>3/4
