Version 4.1
SHEET 1 3424 2852
WIRE 944 352 880 352
WIRE 592 368 544 368
WIRE 944 400 880 400
WIRE 592 416 544 416
WIRE 592 496 544 496
WIRE 944 496 880 496
WIRE 592 544 544 544
WIRE 944 544 880 544
WIRE 592 592 544 592
WIRE 944 592 880 592
WIRE 592 640 544 640
WIRE 944 640 880 640
WIRE -784 688 -880 688
WIRE -784 720 -880 720
WIRE -784 752 -880 752
WIRE -784 784 -880 784
WIRE 560 832 496 832
WIRE 944 832 880 832
WIRE 560 880 496 880
WIRE 944 880 880 880
WIRE -784 960 -880 960
WIRE 560 960 496 960
WIRE 944 960 880 960
WIRE -784 992 -880 992
WIRE 560 1008 496 1008
WIRE 944 1008 880 1008
WIRE -784 1024 -880 1024
WIRE -784 1056 -880 1056
WIRE 560 1056 496 1056
WIRE 944 1056 880 1056
WIRE 560 1104 496 1104
WIRE 944 1104 880 1104
FLAG -880 688 Xold_0
IOPIN -880 688 In
FLAG -880 720 Xold_1
IOPIN -880 720 In
FLAG -880 752 Xold_2
IOPIN -880 752 In
FLAG -880 784 Xold_3
IOPIN -880 784 In
FLAG -880 960 Xnew_0
IOPIN -880 960 In
FLAG -880 992 Xnew_1
IOPIN -880 992 In
FLAG -880 1024 Xnew_2
IOPIN -880 1024 In
FLAG -880 1056 Xnew_3
IOPIN -880 1056 In
FLAG -288 848 S1_0
FLAG -288 880 S1_1
FLAG -288 912 S1_2
FLAG -288 944 S1_3
FLAG -288 784 S1_4
FLAG -16 576 Xold_0
FLAG -16 608 Xold_1
FLAG -16 640 Xold_2
FLAG -16 672 Xold_3
FLAG -16 1104 Xnew_0
FLAG -16 1136 Xnew_1
FLAG -16 1168 Xnew_2
FLAG -16 1200 Xnew_3
FLAG -16 544 0
FLAG -16 1072 0
FLAG 592 368 phi0_0
IOPIN 592 368 Out
FLAG 592 416 phi0_1
IOPIN 592 416 Out
FLAG 592 496 phi0_2
IOPIN 592 496 Out
FLAG 592 544 phi0_3
IOPIN 592 544 Out
FLAG 592 592 phi0_4
IOPIN 592 592 Out
FLAG 592 640 phi0_5
IOPIN 592 640 Out
FLAG 944 352 phi1_0
IOPIN 944 352 Out
FLAG 944 400 phi1_1
IOPIN 944 400 Out
FLAG 944 496 phi1_2
IOPIN 944 496 Out
FLAG 944 544 phi1_3
IOPIN 944 544 Out
FLAG 944 592 phi1_4
IOPIN 944 592 Out
FLAG 944 640 phi1_5
IOPIN 944 640 Out
FLAG 944 832 phi3_0
IOPIN 944 832 Out
FLAG 944 880 phi3_1
IOPIN 944 880 Out
FLAG 944 960 phi3_2
IOPIN 944 960 Out
FLAG 944 1008 phi3_3
IOPIN 944 1008 Out
FLAG 944 1056 phi3_4
IOPIN 944 1056 Out
FLAG 944 1104 phi3_5
IOPIN 944 1104 Out
FLAG 560 832 phi2_0
IOPIN 560 832 Out
FLAG 560 880 phi2_1
IOPIN 560 880 Out
FLAG 560 960 phi2_2
IOPIN 560 960 Out
FLAG 560 1008 phi2_3
IOPIN 560 1008 Out
FLAG 560 1056 phi2_4
IOPIN 560 1056 Out
FLAG 560 1104 phi2_5
IOPIN 560 1104 Out
FLAG 464 496 Xold_0
FLAG 464 544 Xold_1
FLAG 464 592 Xold_2
FLAG 464 640 Xold_3
FLAG 496 960 S1_1
FLAG 496 1008 S1_2
FLAG 496 1056 S1_3
FLAG 496 1104 S1_4
FLAG 496 880 S1_0
FLAG 128 464 S2_0
FLAG 128 496 S2_1
FLAG 128 528 S2_2
FLAG 128 560 S2_3
FLAG 128 592 S2_4
FLAG 128 400 S2_5
FLAG 128 992 S3_0
FLAG 128 1024 S3_1
FLAG 128 1056 S3_2
FLAG 128 1088 S3_3
FLAG 128 1120 S3_4
FLAG 128 928 S3_5
FLAG 880 496 S2_2
FLAG 880 544 S2_3
FLAG 880 592 S2_4
FLAG 880 640 S2_5
FLAG 880 352 S2_0
FLAG 880 400 S2_1
FLAG 880 960 S3_2
FLAG 880 1008 S3_3
FLAG 880 1056 S3_4
FLAG 880 1104 S3_5
FLAG 880 832 S3_0
FLAG 880 880 S3_1
FLAG -16 352 S1_0
FLAG -16 384 S1_1
FLAG -16 416 S1_2
FLAG -16 448 S1_3
FLAG -16 480 S1_4
FLAG -16 880 S1_0
FLAG -16 912 S1_1
FLAG -16 944 S1_2
FLAG -16 976 S1_3
FLAG -16 1008 S1_4
FLAG -288 688 Vdd
IOPIN -288 688 In
FLAG -16 832 Vdd
IOPIN -16 832 In
FLAG 128 832 Vdd
IOPIN 128 832 In
FLAG -16 304 Vdd
IOPIN -16 304 In
FLAG 128 304 Vdd
IOPIN 128 304 In
FLAG -784 688 Xold_0
FLAG -784 752 Xold_2
FLAG -784 784 Xold_3
FLAG -784 960 Xnew_0
FLAG -784 992 Xnew_1
FLAG -784 1024 Xnew_2
FLAG -784 1056 Xnew_3
FLAG -784 720 Xold_1
FLAG -432 704 Xold_0
FLAG -432 768 Xold_2
FLAG -432 800 Xold_3
FLAG -432 736 Xold_1
FLAG -432 864 Xnew_0
FLAG -432 896 Xnew_1
FLAG -432 928 Xnew_2
FLAG -432 960 Xnew_3
FLAG -288 720 0
FLAG 128 336 0
FLAG 128 864 0
FLAG 464 368 0
FLAG 464 416 0
FLAG 416 832 0
SYMBOL voltage 560 368 R90
WINDOW 123 0 0 Left 0
WINDOW 39 0 0 Left 0
SYMATTR InstName V1
SYMATTR Value 0
SYMBOL voltage 560 416 R90
WINDOW 123 0 0 Left 0
WINDOW 39 0 0 Left 0
SYMATTR InstName V2
SYMATTR Value 0
SYMBOL voltage 560 496 R90
WINDOW 123 0 0 Left 0
WINDOW 39 0 0 Left 0
SYMATTR InstName V3
SYMATTR Value 0
SYMBOL voltage 560 544 R90
WINDOW 123 0 0 Left 0
WINDOW 39 0 0 Left 0
SYMATTR InstName V4
SYMATTR Value 0
SYMBOL voltage 560 592 R90
WINDOW 123 0 0 Left 0
WINDOW 39 0 0 Left 0
SYMATTR InstName V5
SYMATTR Value 0
SYMBOL voltage 560 640 R90
WINDOW 123 0 0 Left 0
WINDOW 39 0 0 Left 0
SYMATTR InstName V6
SYMATTR Value 0
SYMBOL CLA-4bit-NoCin -368 832 R0
SYMATTR InstName X1
SYMBOL CLA-5bit 48 496 R0
SYMATTR InstName X2
SYMBOL CLA-5bit 48 1024 R0
SYMATTR InstName X3
SYMBOL voltage 512 832 R90
WINDOW 123 0 0 Left 0
WINDOW 39 0 0 Left 0
SYMATTR InstName V7
SYMATTR Value 0
TEXT 464 296 Left 2 ;PHI_0 OUTPUTS
TEXT 824 296 Left 2 ;PHI_1 OUTPUTS
TEXT 832 776 Left 2 ;PHI_3 OUTPUTS
TEXT 440 776 Left 2 ;PHI_2 OUTPUTS
TEXT -1168 760 Left 2 ;X[k] INPUTS
TEXT -1200 1016 Left 2 ;X[k+1] INPUTS
TEXT 432 1192 Left 2 ;Output [5:0]:
TEXT 456 1224 Left 2 ;- Output[5:2] -> 0 a 15\n- Output[1:0] -> 00=>0; 01=>1/4; 10=>1/2; 11=>3/4
