Version 4.1
SHEET 1 3424 2852
WIRE 784 352 720 352
WIRE 432 368 384 368
WIRE 784 400 720 400
WIRE 432 416 384 416
WIRE 432 496 384 496
WIRE 784 496 720 496
WIRE 432 544 384 544
WIRE 784 544 720 544
WIRE 432 592 384 592
WIRE 784 592 720 592
WIRE 432 640 384 640
WIRE 784 640 720 640
WIRE -1040 704 -1136 704
WIRE -1040 736 -1136 736
WIRE -1040 768 -1136 768
WIRE -1040 800 -1136 800
WIRE 400 832 336 832
WIRE 784 832 720 832
WIRE 400 880 336 880
WIRE 784 880 720 880
WIRE 400 960 336 960
WIRE 784 960 720 960
WIRE -1040 976 -1136 976
WIRE -1040 1008 -1136 1008
WIRE 400 1008 336 1008
WIRE 784 1008 720 1008
WIRE -1040 1040 -1136 1040
WIRE 400 1056 336 1056
WIRE 784 1056 720 1056
WIRE -1040 1072 -1136 1072
WIRE 400 1104 336 1104
WIRE 784 1104 720 1104
FLAG -1136 704 Xold_0
IOPIN -1136 704 In
FLAG -1136 736 Xold_1
IOPIN -1136 736 In
FLAG -1136 768 Xold_2
IOPIN -1136 768 In
FLAG -1136 800 Xold_3
IOPIN -1136 800 In
FLAG -1136 976 Xnew_0
IOPIN -1136 976 In
FLAG -1136 1008 Xnew_1
IOPIN -1136 1008 In
FLAG -1136 1040 Xnew_2
IOPIN -1136 1040 In
FLAG -1136 1072 Xnew_3
IOPIN -1136 1072 In
FLAG -544 832 S1_0
FLAG -544 864 S1_1
FLAG -544 896 S1_2
FLAG -544 928 S1_3
FLAG -544 784 S1_4
FLAG -176 544 Xold_0
FLAG -176 576 Xold_1
FLAG -176 608 Xold_2
FLAG -176 640 Xold_3
FLAG -176 1072 Xnew_0
FLAG -176 1104 Xnew_1
FLAG -176 1136 Xnew_2
FLAG -176 1168 Xnew_3
FLAG 432 368 phi0_0
IOPIN 432 368 Out
FLAG 432 416 phi0_1
IOPIN 432 416 Out
FLAG 432 496 phi0_2
IOPIN 432 496 Out
FLAG 432 544 phi0_3
IOPIN 432 544 Out
FLAG 432 592 phi0_4
IOPIN 432 592 Out
FLAG 432 640 phi0_5
IOPIN 432 640 Out
FLAG 784 352 phi1_0
IOPIN 784 352 Out
FLAG 784 400 phi1_1
IOPIN 784 400 Out
FLAG 784 496 phi1_2
IOPIN 784 496 Out
FLAG 784 544 phi1_3
IOPIN 784 544 Out
FLAG 784 592 phi1_4
IOPIN 784 592 Out
FLAG 784 640 phi1_5
IOPIN 784 640 Out
FLAG 784 832 phi3_0
IOPIN 784 832 Out
FLAG 784 880 phi3_1
IOPIN 784 880 Out
FLAG 784 960 phi3_2
IOPIN 784 960 Out
FLAG 784 1008 phi3_3
IOPIN 784 1008 Out
FLAG 784 1056 phi3_4
IOPIN 784 1056 Out
FLAG 784 1104 phi3_5
IOPIN 784 1104 Out
FLAG 400 832 phi2_0
IOPIN 400 832 Out
FLAG 400 880 phi2_1
IOPIN 400 880 Out
FLAG 400 960 phi2_2
IOPIN 400 960 Out
FLAG 400 1008 phi2_3
IOPIN 400 1008 Out
FLAG 400 1056 phi2_4
IOPIN 400 1056 Out
FLAG 400 1104 phi2_5
IOPIN 400 1104 Out
FLAG 336 960 S1_1
FLAG 336 1008 S1_2
FLAG 336 1056 S1_3
FLAG 336 1104 S1_4
FLAG 336 880 S1_0
FLAG -32 464 S2_0
FLAG -32 496 S2_1
FLAG -32 528 S2_2
FLAG -32 560 S2_3
FLAG -32 592 S2_4
FLAG -32 400 S2_5
FLAG -32 992 S3_0
FLAG -32 1024 S3_1
FLAG -32 1056 S3_2
FLAG -32 1088 S3_3
FLAG -32 1120 S3_4
FLAG -32 928 S3_5
FLAG 720 496 S2_2
FLAG 720 544 S2_3
FLAG 720 592 S2_4
FLAG 720 640 S2_5
FLAG 720 352 S2_0
FLAG 720 400 S2_1
FLAG 720 960 S3_2
FLAG 720 1008 S3_3
FLAG 720 1056 S3_4
FLAG 720 1104 S3_5
FLAG 720 832 S3_0
FLAG 720 880 S3_1
FLAG -176 320 S1_0
FLAG -176 352 S1_1
FLAG -176 384 S1_2
FLAG -176 416 S1_3
FLAG -176 448 S1_4
FLAG -176 848 S1_0
FLAG -176 880 S1_1
FLAG -176 912 S1_2
FLAG -176 944 S1_3
FLAG -176 976 S1_4
FLAG -544 704 Vdd
IOPIN -544 704 In
FLAG -32 832 Vdd
IOPIN -32 832 In
FLAG -32 304 Vdd
IOPIN -32 304 In
FLAG -1040 704 Xold_0
FLAG -1040 768 Xold_2
FLAG -1040 800 Xold_3
FLAG -1040 976 Xnew_0
FLAG -1040 1008 Xnew_1
FLAG -1040 1040 Xnew_2
FLAG -1040 1072 Xnew_3
FLAG -1040 736 Xold_1
FLAG -688 720 Xold_0
FLAG -688 784 Xold_2
FLAG -688 816 Xold_3
FLAG -688 752 Xold_1
FLAG -688 880 Xnew_0
FLAG -688 912 Xnew_1
FLAG -688 944 Xnew_2
FLAG -688 976 Xnew_3
FLAG -544 736 Vee
IOPIN -544 736 In
FLAG -32 336 Vee
IOPIN -32 336 In
FLAG -32 864 Vee
IOPIN -32 864 In
FLAG -176 1040 Vee
IOPIN -176 1040 In
FLAG 256 832 Vee
IOPIN 256 832 In
FLAG 304 368 Vee
IOPIN 304 368 In
FLAG 304 416 Vee
IOPIN 304 416 In
FLAG -176 512 Vee
IOPIN -176 512 In
FLAG 304 496 Xnew_0
FLAG 304 544 Xnew_1
FLAG 304 592 Xnew_2
FLAG 304 640 Xnew_3
SYMBOL voltage 400 368 R90
WINDOW 123 0 0 Left 0
WINDOW 39 0 0 Left 0
SYMATTR InstName V1
SYMATTR Value 0
SYMBOL voltage 400 416 R90
WINDOW 123 0 0 Left 0
WINDOW 39 0 0 Left 0
SYMATTR InstName V2
SYMATTR Value 0
SYMBOL voltage 400 496 R90
WINDOW 123 0 0 Left 0
WINDOW 39 0 0 Left 0
SYMATTR InstName V3
SYMATTR Value 0
SYMBOL voltage 400 544 R90
WINDOW 123 0 0 Left 0
WINDOW 39 0 0 Left 0
SYMATTR InstName V4
SYMATTR Value 0
SYMBOL voltage 400 592 R90
WINDOW 123 0 0 Left 0
WINDOW 39 0 0 Left 0
SYMATTR InstName V5
SYMATTR Value 0
SYMBOL voltage 400 640 R90
WINDOW 123 0 0 Left 0
WINDOW 39 0 0 Left 0
SYMATTR InstName V6
SYMATTR Value 0
SYMBOL voltage 352 832 R90
WINDOW 123 0 0 Left 0
WINDOW 39 0 0 Left 0
SYMATTR InstName V7
SYMATTR Value 0
SYMBOL pseudo-CLA-5bit-NoCin -112 480 R0
SYMATTR InstName X2
SYMBOL pseudo-CLA-5bit-NoCin -112 1008 R0
SYMATTR InstName X3
SYMBOL pseudo-CLA-4bit-NoCin -624 848 R0
SYMATTR InstName X1
TEXT 304 296 Left 2 ;PHI_0 OUTPUTS
TEXT 664 296 Left 2 ;PHI_1 OUTPUTS
TEXT 672 776 Left 2 ;PHI_3 OUTPUTS
TEXT 280 776 Left 2 ;PHI_2 OUTPUTS
TEXT -1424 776 Left 2 ;X[k] INPUTS
TEXT -1456 1032 Left 2 ;X[k+1] INPUTS
TEXT 272 1192 Left 2 ;Output [5:0]:
TEXT 296 1224 Left 2 ;- Output[5:2] -> 0 a 15\n- Output[1:0] -> 00=>0; 01=>1/4; 10=>1/2; 11=>3/4
TEXT -232 1240 Left 2 ;S + Xnew*2 (shifted)
TEXT -224 704 Left 2 ;S + Xold*2 (shifted)
TEXT -736 1048 Left 2 ;S = Xold + Xnew
