Version 4
SHEET 1 3424 2852
<<<<<<< Updated upstream
WIRE 944 352 880 352
WIRE 592 368 544 368
WIRE 944 400 880 400
WIRE 592 416 544 416
WIRE 592 496 544 496
WIRE 944 496 880 496
WIRE 592 544 544 544
WIRE 944 544 880 544
WIRE 592 592 544 592
WIRE 944 592 880 592
WIRE 592 640 544 640
WIRE 944 640 880 640
WIRE -784 688 -880 688
WIRE -784 720 -880 720
WIRE -784 752 -880 752
WIRE -784 784 -880 784
WIRE 560 832 496 832
WIRE 944 832 880 832
WIRE 560 880 496 880
WIRE 944 880 880 880
WIRE -784 960 -880 960
WIRE 560 960 496 960
WIRE 944 960 880 960
WIRE -784 992 -880 992
WIRE 560 1008 496 1008
WIRE 944 1008 880 1008
WIRE -784 1024 -880 1024
WIRE -784 1056 -880 1056
WIRE 560 1056 496 1056
WIRE 944 1056 880 1056
WIRE 560 1104 496 1104
WIRE 944 1104 880 1104
FLAG -880 688 Xold_0
IOPIN -880 688 In
FLAG -880 720 Xold_1
IOPIN -880 720 In
FLAG -880 752 Xold_2
IOPIN -880 752 In
FLAG -880 784 Xold_3
IOPIN -880 784 In
FLAG -880 960 Xnew_0
IOPIN -880 960 In
FLAG -880 992 Xnew_1
IOPIN -880 992 In
FLAG -880 1024 Xnew_2
IOPIN -880 1024 In
FLAG -880 1056 Xnew_3
IOPIN -880 1056 In
FLAG -288 816 S1_0
FLAG -288 848 S1_1
FLAG -288 880 S1_2
FLAG -288 912 S1_3
FLAG -288 768 S1_4
FLAG -16 544 Xold_0
FLAG -16 576 Xold_1
FLAG -16 608 Xold_2
FLAG -16 640 Xold_3
FLAG -16 1072 Xnew_0
FLAG -16 1104 Xnew_1
FLAG -16 1136 Xnew_2
FLAG -16 1168 Xnew_3
FLAG 592 368 phi0_0
IOPIN 592 368 Out
FLAG 592 416 phi0_1
IOPIN 592 416 Out
FLAG 592 496 phi0_2
IOPIN 592 496 Out
FLAG 592 544 phi0_3
IOPIN 592 544 Out
FLAG 592 592 phi0_4
IOPIN 592 592 Out
FLAG 592 640 phi0_5
IOPIN 592 640 Out
FLAG 944 352 phi1_0
IOPIN 944 352 Out
FLAG 944 400 phi1_1
IOPIN 944 400 Out
FLAG 944 496 phi1_2
IOPIN 944 496 Out
FLAG 944 544 phi1_3
IOPIN 944 544 Out
FLAG 944 592 phi1_4
IOPIN 944 592 Out
FLAG 944 640 phi1_5
IOPIN 944 640 Out
FLAG 944 832 phi3_0
IOPIN 944 832 Out
FLAG 944 880 phi3_1
IOPIN 944 880 Out
FLAG 944 960 phi3_2
IOPIN 944 960 Out
FLAG 944 1008 phi3_3
IOPIN 944 1008 Out
FLAG 944 1056 phi3_4
IOPIN 944 1056 Out
FLAG 944 1104 phi3_5
IOPIN 944 1104 Out
FLAG 560 832 phi2_0
IOPIN 560 832 Out
FLAG 560 880 phi2_1
IOPIN 560 880 Out
FLAG 560 960 phi2_2
IOPIN 560 960 Out
FLAG 560 1008 phi2_3
IOPIN 560 1008 Out
FLAG 560 1056 phi2_4
IOPIN 560 1056 Out
FLAG 560 1104 phi2_5
IOPIN 560 1104 Out
FLAG 496 960 S1_1
FLAG 496 1008 S1_2
FLAG 496 1056 S1_3
FLAG 496 1104 S1_4
FLAG 496 880 S1_0
FLAG 128 464 S2_0
FLAG 128 496 S2_1
FLAG 128 528 S2_2
FLAG 128 560 S2_3
FLAG 128 592 S2_4
FLAG 128 400 S2_5
FLAG 128 992 S3_0
FLAG 128 1024 S3_1
FLAG 128 1056 S3_2
FLAG 128 1088 S3_3
FLAG 128 1120 S3_4
FLAG 128 928 S3_5
FLAG 880 496 S2_2
FLAG 880 544 S2_3
FLAG 880 592 S2_4
FLAG 880 640 S2_5
FLAG 880 352 S2_0
FLAG 880 400 S2_1
FLAG 880 960 S3_2
FLAG 880 1008 S3_3
FLAG 880 1056 S3_4
FLAG 880 1104 S3_5
FLAG 880 832 S3_0
FLAG 880 880 S3_1
FLAG -16 320 S1_0
FLAG -16 352 S1_1
FLAG -16 384 S1_2
FLAG -16 416 S1_3
FLAG -16 448 S1_4
FLAG -16 848 S1_0
FLAG -16 880 S1_1
FLAG -16 912 S1_2
FLAG -16 944 S1_3
FLAG -16 976 S1_4
FLAG -288 688 Vdd
IOPIN -288 688 In
FLAG 128 832 Vdd
IOPIN 128 832 In
FLAG 128 304 Vdd
IOPIN 128 304 In
FLAG -784 688 Xold_0
FLAG -784 752 Xold_2
FLAG -784 784 Xold_3
FLAG -784 960 Xnew_0
FLAG -784 992 Xnew_1
FLAG -784 1024 Xnew_2
FLAG -784 1056 Xnew_3
FLAG -784 720 Xold_1
FLAG -432 704 Xold_0
FLAG -432 768 Xold_2
FLAG -432 800 Xold_3
FLAG -432 736 Xold_1
FLAG -432 864 Xnew_0
FLAG -432 896 Xnew_1
FLAG -432 928 Xnew_2
FLAG -432 960 Xnew_3
FLAG -288 720 Vee
IOPIN -288 720 In
FLAG 128 336 Vee
IOPIN 128 336 In
FLAG 128 864 Vee
IOPIN 128 864 In
FLAG -16 1040 Vee
IOPIN -16 1040 In
FLAG 416 832 Vee
IOPIN 416 832 In
FLAG 464 368 Vee
IOPIN 464 368 In
FLAG 464 416 Vee
IOPIN 464 416 In
FLAG -16 512 Vee
IOPIN -16 512 In
FLAG 464 496 Xnew_0
FLAG 464 544 Xnew_1
FLAG 464 592 Xnew_2
FLAG 464 640 Xnew_3
SYMBOL voltage 560 368 R90
=======
WIRE -912 656 -1008 656
WIRE -912 688 -1008 688
WIRE -912 720 -1008 720
WIRE -912 752 -1008 752
WIRE -912 928 -1008 928
WIRE -912 960 -1008 960
WIRE -912 992 -1008 992
WIRE -912 1024 -1008 1024
WIRE -672 1440 -736 1440
WIRE -208 1440 -272 1440
WIRE 192 1440 128 1440
WIRE -1056 1456 -1104 1456
WIRE -672 1488 -736 1488
WIRE -208 1488 -272 1488
WIRE 192 1488 128 1488
WIRE -1056 1504 -1104 1504
WIRE -208 1568 -272 1568
WIRE 192 1568 128 1568
WIRE -1056 1584 -1104 1584
WIRE -672 1584 -736 1584
WIRE -208 1616 -272 1616
WIRE 192 1616 128 1616
WIRE -1056 1632 -1104 1632
WIRE -672 1632 -736 1632
WIRE -208 1664 -272 1664
WIRE 192 1664 128 1664
WIRE -1056 1680 -1104 1680
WIRE -672 1680 -736 1680
WIRE -208 1712 -272 1712
WIRE 192 1712 128 1712
WIRE -1056 1728 -1104 1728
WIRE -672 1728 -736 1728
FLAG -1008 928 Xnew_0
IOPIN -1008 928 In
FLAG -1008 960 Xnew_1
IOPIN -1008 960 In
FLAG -1008 992 Xnew_2
IOPIN -1008 992 In
FLAG -1008 1024 Xnew_3
IOPIN -1008 1024 In
FLAG -272 816 S1_0
FLAG -272 848 S1_1
FLAG -272 880 S1_2
FLAG -272 912 S1_3
FLAG -272 768 S1_4
FLAG 128 560 Xold_0
FLAG 128 592 Xold_1
FLAG 128 624 Xold_2
FLAG 128 656 Xold_3
FLAG 128 1088 Xnew_0
FLAG 128 1120 Xnew_1
FLAG 128 1152 Xnew_2
FLAG 128 1184 Xnew_3
FLAG -1056 1456 phi0_0
IOPIN -1056 1456 Out
FLAG -1056 1504 phi0_1
IOPIN -1056 1504 Out
FLAG -1056 1584 phi0_2
IOPIN -1056 1584 Out
FLAG -1056 1632 phi0_3
IOPIN -1056 1632 Out
FLAG -1056 1680 phi0_4
IOPIN -1056 1680 Out
FLAG -1056 1728 phi0_5
IOPIN -1056 1728 Out
FLAG -672 1440 phi1_0
IOPIN -672 1440 Out
FLAG -672 1488 phi1_1
IOPIN -672 1488 Out
FLAG -672 1584 phi1_2
IOPIN -672 1584 Out
FLAG -672 1632 phi1_3
IOPIN -672 1632 Out
FLAG -672 1680 phi1_4
IOPIN -672 1680 Out
FLAG -672 1728 phi1_5
IOPIN -672 1728 Out
FLAG 192 1440 phi3_0
IOPIN 192 1440 Out
FLAG 192 1488 phi3_1
IOPIN 192 1488 Out
FLAG 192 1568 phi3_2
IOPIN 192 1568 Out
FLAG 192 1616 phi3_3
IOPIN 192 1616 Out
FLAG 192 1664 phi3_4
IOPIN 192 1664 Out
FLAG 192 1712 phi3_5
IOPIN 192 1712 Out
FLAG -208 1440 phi2_0
IOPIN -208 1440 Out
FLAG -208 1488 phi2_1
IOPIN -208 1488 Out
FLAG -208 1568 phi2_2
IOPIN -208 1568 Out
FLAG -208 1616 phi2_3
IOPIN -208 1616 Out
FLAG -208 1664 phi2_4
IOPIN -208 1664 Out
FLAG -208 1712 phi2_5
IOPIN -208 1712 Out
FLAG -1184 1584 Xold_0
FLAG -1184 1632 Xold_1
FLAG -1184 1680 Xold_2
FLAG -1184 1728 Xold_3
FLAG -272 1568 S1_1
FLAG -272 1616 S1_2
FLAG -272 1664 S1_3
FLAG -272 1712 S1_4
FLAG -272 1488 S1_0
FLAG 272 480 S2_0
FLAG 272 512 S2_1
FLAG 272 544 S2_2
FLAG 272 576 S2_3
FLAG 272 608 S2_4
FLAG 272 416 S2_5
FLAG 272 1008 S3_0
FLAG 272 1040 S3_1
FLAG 272 1072 S3_2
FLAG 272 1104 S3_3
FLAG 272 1136 S3_4
FLAG 272 944 S3_5
FLAG -736 1584 S2_2
FLAG -736 1632 S2_3
FLAG -736 1680 S2_4
FLAG -736 1728 S2_5
FLAG -736 1440 S2_0
FLAG -736 1488 S2_1
FLAG 128 1568 S3_2
FLAG 128 1616 S3_3
FLAG 128 1664 S3_4
FLAG 128 1712 S3_5
FLAG 128 1440 S3_0
FLAG 128 1488 S3_1
FLAG 128 336 S1_0
FLAG 128 368 S1_1
FLAG 128 400 S1_2
FLAG 128 432 S1_3
FLAG 128 464 S1_4
FLAG 128 864 S1_0
FLAG 128 896 S1_1
FLAG 128 928 S1_2
FLAG 128 960 S1_3
FLAG 128 992 S1_4
FLAG -272 688 Vdd
IOPIN -272 688 In
FLAG 272 848 Vdd
IOPIN 272 848 In
FLAG 272 320 Vdd
IOPIN 272 320 In
FLAG -912 656 Xold_0
FLAG -912 720 Xold_2
FLAG -912 752 Xold_3
FLAG -912 928 Xnew_0
FLAG -912 960 Xnew_1
FLAG -912 992 Xnew_2
FLAG -912 1024 Xnew_3
FLAG -912 688 Xold_1
FLAG -416 704 Xold_0
FLAG -416 768 Xold_2
FLAG -416 800 Xold_3
FLAG -416 736 Xold_1
FLAG -416 864 Xnew_0
FLAG -416 896 Xnew_1
FLAG -416 928 Xnew_2
FLAG -416 960 Xnew_3
FLAG -272 720 Vee
IOPIN -272 720 In
FLAG 128 528 Vee
IOPIN 128 528 In
FLAG 272 352 Vee
IOPIN 272 352 In
FLAG -1184 1456 Vee
IOPIN -1184 1456 In
FLAG -1184 1504 Vee
IOPIN -1184 1504 In
FLAG -352 1440 Vee
IOPIN -352 1440 In
FLAG 272 880 Vee
IOPIN 272 880 In
FLAG 128 1056 Vee
IOPIN 128 1056 In
FLAG -2000 1360 0
FLAG -1984 1104 0
FLAG -1984 864 0
FLAG -1984 640 0
FLAG -2592 1632 0
FLAG -2592 1552 Vdd
FLAG -2000 1280 Xnew_0
IOPIN -2000 1280 In
FLAG -1984 1024 Xnew_1
IOPIN -1984 1024 In
FLAG -1984 784 Xnew_2
IOPIN -1984 784 In
FLAG -1984 560 Xnew_3
IOPIN -1984 560 In
FLAG -1008 656 0
FLAG -1008 688 0
FLAG -1008 720 0
FLAG -1008 752 0
SYMBOL voltage -1088 1456 R90
>>>>>>> Stashed changes
WINDOW 123 0 0 Left 0
WINDOW 39 0 0 Left 0
SYMATTR InstName V1
SYMATTR Value 0
SYMBOL voltage -1088 1504 R90
WINDOW 123 0 0 Left 0
WINDOW 39 0 0 Left 0
SYMATTR InstName V2
SYMATTR Value 0
SYMBOL voltage -1088 1584 R90
WINDOW 123 0 0 Left 0
WINDOW 39 0 0 Left 0
SYMATTR InstName V3
SYMATTR Value 0
SYMBOL voltage -1088 1632 R90
WINDOW 123 0 0 Left 0
WINDOW 39 0 0 Left 0
SYMATTR InstName V4
SYMATTR Value 0
SYMBOL voltage -1088 1680 R90
WINDOW 123 0 0 Left 0
WINDOW 39 0 0 Left 0
SYMATTR InstName V5
SYMATTR Value 0
SYMBOL voltage -1088 1728 R90
WINDOW 123 0 0 Left 0
WINDOW 39 0 0 Left 0
SYMATTR InstName V6
SYMATTR Value 0
SYMBOL voltage -256 1440 R90
WINDOW 123 0 0 Left 0
WINDOW 39 0 0 Left 0
SYMATTR InstName V7
SYMATTR Value 0
SYMBOL pseudo-CLA-5bit-NoCin 192 1024 R0
SYMATTR InstName X3
SYMBOL pseudo-CLA-4bit-NoCin -352 832 R0
SYMATTR InstName X1
SYMBOL voltage -2000 1264 R0
WINDOW 123 0 0 Left 0
WINDOW 39 0 0 Left 0
SYMATTR InstName V8
SYMATTR Value PULSE(0 3.3 {tt/3} {tt/1000} {tt/1000} {1000*tt} {1000*tt})
SYMBOL voltage -1984 1008 R0
WINDOW 123 0 0 Left 0
WINDOW 39 0 0 Left 0
SYMATTR InstName V9
SYMATTR Value 0
SYMBOL voltage -1984 768 R0
WINDOW 123 0 0 Left 0
WINDOW 39 0 0 Left 0
SYMATTR InstName V10
SYMATTR Value 0
SYMBOL voltage -1984 544 R0
WINDOW 123 0 0 Left 0
WINDOW 39 0 0 Left 0
SYMATTR InstName V11
SYMATTR Value 0
SYMBOL voltage -2592 1536 R0
WINDOW 123 0 0 Left 0
WINDOW 39 0 0 Left 0
SYMATTR InstName V12
SYMATTR Value {Vdd}
SYMBOL pseudo-CLA-5bit-NoCin 192 496 R0
SYMATTR InstName X2
TEXT -1184 1384 Left 2 ;PHI_0 OUTPUTS
TEXT -792 1384 Left 2 ;PHI_1 OUTPUTS
TEXT 80 1384 Left 2 ;PHI_3 OUTPUTS
TEXT -328 1384 Left 2 ;PHI_2 OUTPUTS
TEXT -1296 728 Left 2 ;X[k] INPUTS
TEXT -1328 984 Left 2 ;X[k+1] INPUTS
TEXT -912 1248 Left 2 ;Output [5:0]:
TEXT -888 1280 Left 2 ;- Output[5:2] -> 0 a 15\n- Output[1:0] -> 00=>0; 01=>1/4; 10=>1/2; 11=>3/4
TEXT 72 1256 Left 2 ;S + Xnew*2 (shifted)
TEXT 80 720 Left 2 ;S + Xold*2 (shifted)
TEXT -464 1032 Left 2 ;S = Xold + Xnew
TEXT -2416 1568 Left 2 !.tran {5*tt}
TEXT -2424 1648 Left 2 !.inc ..\\..\\..\\gf180\\cmos_tt.txt
TEXT -2416 1472 Left 2 !.param a=0.9 Vdd=3.3 tt=10n
TEXT -2728 320 Left 2 ;(1/4*V(phi0_0)+1/2*V(phi0_1)+V(phi0_2)+2*V(phi0_3)+4*V(phi0_4)+8*V(phi0_5))/V(Vdd)\n(1/4*V(phi1_0)+1/2*V(phi1_1)+V(phi1_2)+2*V(phi1_3)+4*V(phi1_4)+8*V(phi1_5))/V(Vdd)\n(1/4*V(phi2_0)+1/2*V(phi2_1)+V(phi2_2)+2*V(phi2_3)+4*V(phi2_4)+8*V(phi2_5))/V(Vdd)\n(1/4*V(phi3_0)+1/2*V(phi3_1)+V(phi3_2)+2*V(phi3_3)+4*V(phi3_4)+8*V(phi3_5))/V(Vdd)
TEXT -1504 464 Left 2 !.ic V(Xold_0)=0 V(Xold_1)=0 V(Xold_2)=0 V(Xold_3)=0
