Version 4.1
SHEET 1 1832 1284
WIRE -32 -672 -32 -704
WIRE 16 -672 16 -704
WIRE 48 -672 48 -704
WIRE 432 -672 432 -704
WIRE 480 -672 480 -704
WIRE 512 -672 512 -704
WIRE 896 -672 896 -704
WIRE 944 -672 944 -704
WIRE 976 -672 976 -704
WIRE 1360 -672 1360 -704
WIRE 1408 -672 1408 -704
WIRE 1440 -672 1440 -704
WIRE 192 -656 192 -704
WIRE 320 -656 304 -656
WIRE 656 -656 656 -704
WIRE 784 -656 768 -656
WIRE 1120 -656 1120 -704
WIRE 1248 -656 1232 -656
WIRE 1584 -656 1584 -704
WIRE -64 -608 -112 -608
WIRE 112 -608 64 -608
WIRE 304 -608 304 -656
WIRE 304 -608 272 -608
WIRE 400 -608 304 -608
WIRE 576 -608 528 -608
WIRE 768 -608 768 -656
WIRE 768 -608 736 -608
WIRE 864 -608 768 -608
WIRE 1040 -608 992 -608
WIRE 1232 -608 1232 -656
WIRE 1232 -608 1200 -608
WIRE 1328 -608 1232 -608
WIRE 1504 -608 1456 -608
WIRE 1712 -608 1664 -608
WIRE -112 -592 -112 -608
WIRE 224 -560 192 -560
WIRE 688 -560 656 -560
WIRE 1152 -560 1120 -560
WIRE 1616 -560 1584 -560
WIRE 224 -544 224 -560
WIRE 688 -544 688 -560
WIRE 1152 -544 1152 -560
WIRE 1616 -544 1616 -560
WIRE 112 -480 80 -480
WIRE 576 -480 544 -480
WIRE 1040 -480 1008 -480
WIRE 1504 -480 1472 -480
WIRE 80 -464 80 -480
WIRE 544 -464 544 -480
WIRE 1008 -464 1008 -480
WIRE 1472 -464 1472 -480
WIRE 0 -416 0 -544
WIRE 208 -416 160 -416
WIRE 464 -416 464 -544
WIRE 624 -416 608 -416
WIRE 672 -416 624 -416
WIRE 928 -416 928 -544
WIRE 1136 -416 1088 -416
WIRE 1392 -416 1392 -544
WIRE 1552 -416 1536 -416
WIRE 1600 -416 1552 -416
WIRE 112 -368 80 -368
WIRE 576 -368 544 -368
WIRE 1040 -368 1008 -368
WIRE 1504 -368 1472 -368
WIRE 112 -352 112 -368
WIRE 576 -352 576 -368
WIRE 1040 -352 1040 -368
WIRE 1504 -352 1504 -368
FLAG -32 -704 Vdd
IOPIN -32 -704 In
FLAG 192 -704 Vdd
IOPIN 192 -704 In
FLAG 224 -544 0
FLAG 208 -416 S_0
IOPIN 208 -416 Out
FLAG 320 -656 Co_0
FLAG 432 -704 Vdd
IOPIN 432 -704 In
FLAG 656 -704 Vdd
IOPIN 656 -704 In
FLAG 688 -544 0
FLAG 672 -416 S_1
IOPIN 672 -416 Out
FLAG 784 -656 Co_1
FLAG 896 -704 Vdd
IOPIN 896 -704 In
FLAG 1120 -704 Vdd
IOPIN 1120 -704 In
FLAG 1152 -544 0
FLAG 1136 -416 S_2
IOPIN 1136 -416 Out
FLAG 1248 -656 Co_2
FLAG 1360 -704 Vdd
IOPIN 1360 -704 In
FLAG 1584 -704 Vdd
IOPIN 1584 -704 In
FLAG 1616 -544 0
FLAG 1600 -416 S_3
IOPIN 1600 -416 Out
FLAG 1712 -608 Co_3
IOPIN 1712 -608 Out
FLAG 112 -480 Vdd
IOPIN 112 -480 In
FLAG 576 -480 Vdd
IOPIN 576 -480 In
FLAG 1040 -480 Vdd
IOPIN 1040 -480 In
FLAG 1504 -480 Vdd
IOPIN 1504 -480 In
FLAG 112 -352 0
FLAG 576 -352 0
FLAG 1040 -352 0
FLAG 1504 -352 0
FLAG 16 -704 A_0
IOPIN 16 -704 In
FLAG 48 -704 B_0
IOPIN 48 -704 In
FLAG 480 -704 A_1
IOPIN 480 -704 In
FLAG 512 -704 B_1
IOPIN 512 -704 In
FLAG 944 -704 A_2
IOPIN 944 -704 In
FLAG 976 -704 B_2
IOPIN 976 -704 In
FLAG 1408 -704 A_3
IOPIN 1408 -704 In
FLAG 1440 -704 B_3
IOPIN 1440 -704 In
FLAG -112 -592 0
SYMBOL Digital\\FAX1 0 -608 R0
SYMATTR InstName FA0
SYMBOL Digital\\INVx1 192 -608 R0
SYMATTR InstName X5
SYMBOL Digital\\INVx1 80 -416 R0
SYMATTR InstName X6
SYMBOL Digital\\FAX1 464 -608 R0
SYMATTR InstName FA1
SYMBOL Digital\\INVx1 656 -608 R0
SYMATTR InstName X3
SYMBOL Digital\\INVx1 544 -416 R0
SYMATTR InstName X4
SYMBOL Digital\\FAX1 928 -608 R0
SYMATTR InstName FA2
SYMBOL Digital\\INVx1 1120 -608 R0
SYMATTR InstName X8
SYMBOL Digital\\INVx1 1008 -416 R0
SYMATTR InstName X9
SYMBOL Digital\\FAX1 1392 -608 R0
SYMATTR InstName FA3
SYMBOL Digital\\INVx1 1584 -608 R0
SYMATTR InstName X11
SYMBOL Digital\\INVx1 1472 -416 R0
SYMATTR InstName X12
TEXT 248 -856 Left 2 !.inc C:\\Users\\Amteo\\Desktop\\SPICE\\gf180\\cmos_tt.txt
