Version 4.1
SHEET 1 880 680
WIRE -32 -64 -32 -80
WIRE -352 -48 -384 -48
WIRE -112 -16 -160 -16
WIRE 96 -16 48 -16
WIRE -352 16 -384 16
WIRE -32 48 -32 32
WIRE -32 192 -32 176
WIRE -352 208 -384 208
WIRE 96 208 96 -16
WIRE 208 208 96 208
WIRE -112 240 -160 240
WIRE 208 240 48 240
WIRE 320 240 304 240
WIRE -352 272 -384 272
WIRE 208 272 96 272
WIRE -32 304 -32 288
WIRE -32 448 -32 432
WIRE -352 464 -384 464
WIRE -112 496 -160 496
WIRE 96 496 96 272
WIRE 96 496 48 496
WIRE -352 528 -384 528
WIRE -32 560 -32 544
FLAG -240 48 Vee
IOPIN -240 48 In
FLAG -32 -80 Vdd
IOPIN -32 -80 In
FLAG -32 48 Vee
IOPIN -32 48 In
FLAG -32 176 Vdd
IOPIN -32 176 In
FLAG -32 304 Vee
IOPIN -32 304 In
FLAG -384 -48 A
IOPIN -384 -48 In
FLAG -384 16 B
IOPIN -384 16 In
FLAG -384 208 C
IOPIN -384 208 In
FLAG -384 272 D
IOPIN -384 272 In
FLAG -240 -80 Vdd
IOPIN -240 -80 In
FLAG -240 304 Vee
IOPIN -240 304 In
FLAG -240 176 Vdd
IOPIN -240 176 In
FLAG -32 432 Vdd
IOPIN -32 432 In
FLAG -32 560 Vee
IOPIN -32 560 In
FLAG -384 464 E
IOPIN -384 464 In
FLAG -384 528 F
IOPIN -384 528 In
FLAG -240 560 Vee
IOPIN -240 560 In
FLAG -240 432 Vdd
IOPIN -240 432 In
FLAG 208 176 Vdd
IOPIN 208 176 In
FLAG 208 304 Vee
IOPIN 208 304 In
FLAG 320 240 X
IOPIN 320 240 Out
SYMBOL INVx1 -32 -16 R0
SYMATTR InstName X5
SYMBOL INVx1 -32 240 R0
SYMATTR InstName X9
SYMBOL NOR2x1 -272 -16 R0
SYMATTR InstName X10
SYMBOL NOR2x1 -272 240 R0
SYMATTR InstName X11
SYMBOL 3-NOR 256 240 R0
SYMATTR InstName X1
SYMBOL INVx1 -32 496 R0
SYMATTR InstName X2
SYMBOL NOR2x1 -272 496 R0
SYMATTR InstName X3
