Version 4.1
SHEET 1 2376 2456
WIRE -208 320 -208 304
WIRE -528 336 -576 336
WIRE 352 352 352 336
WIRE 2144 352 2144 336
WIRE -288 368 -336 368
WIRE 32 368 -128 368
WIRE 1840 368 1808 368
WIRE -528 400 -576 400
WIRE 272 400 224 400
WIRE 480 400 432 400
WIRE 2064 400 2016 400
WIRE 2256 400 2224 400
WIRE -208 432 -208 416
WIRE 32 432 -64 432
WIRE 1840 432 1808 432
WIRE 352 464 352 448
WIRE 2144 480 2144 448
WIRE 2144 640 2144 624
WIRE -208 656 -208 640
WIRE 736 656 736 640
WIRE 1840 656 1808 656
WIRE -528 672 -576 672
WIRE 416 672 368 672
WIRE 2064 688 2016 688
WIRE 2256 688 2224 688
WIRE -288 704 -336 704
WIRE -32 704 -128 704
WIRE 656 704 608 704
WIRE 928 704 816 704
WIRE 1840 720 1808 720
WIRE -528 736 -576 736
WIRE 416 736 368 736
WIRE -208 768 -208 752
WIRE 736 768 736 752
WIRE 2144 768 2144 736
WIRE 928 816 928 704
WIRE 1088 816 928 816
WIRE 1088 848 544 848
WIRE -32 864 -32 704
WIRE 64 864 -32 864
WIRE 1088 880 784 880
WIRE 1216 880 1184 880
WIRE 64 896 -96 896
WIRE 192 896 160 896
WIRE 1088 912 1008 912
WIRE 544 944 544 848
WIRE 544 944 512 944
WIRE 2144 960 2144 944
WIRE 1840 976 1808 976
WIRE -96 992 -96 896
WIRE -96 992 -160 992
WIRE 784 1008 784 880
WIRE 784 1008 736 1008
WIRE 2064 1008 2016 1008
WIRE 2256 1008 2224 1008
WIRE 1008 1040 1008 912
WIRE 1008 1040 960 1040
WIRE 1840 1040 1808 1040
WIRE 2144 1088 2144 1056
WIRE -224 1216 -224 1200
WIRE -544 1232 -592 1232
WIRE -304 1264 -352 1264
WIRE -112 1264 -144 1264
WIRE 2144 1280 2144 1264
WIRE -544 1296 -592 1296
WIRE 624 1296 624 1280
WIRE 1840 1296 1808 1296
WIRE 304 1312 256 1312
WIRE -224 1328 -224 1312
WIRE 2064 1328 2016 1328
WIRE 2256 1328 2224 1328
WIRE 544 1344 496 1344
WIRE 816 1344 704 1344
WIRE 1840 1360 1808 1360
WIRE 304 1376 256 1376
WIRE -112 1392 -112 1264
WIRE -32 1392 -112 1392
WIRE 624 1408 624 1392
WIRE 2144 1408 2144 1376
WIRE -32 1424 -416 1424
WIRE 96 1440 64 1440
WIRE -32 1456 -128 1456
WIRE 816 1456 816 1344
WIRE 1472 1456 816 1456
WIRE -416 1488 -416 1424
WIRE -416 1488 -448 1488
WIRE 1472 1488 432 1488
WIRE 1472 1520 672 1520
WIRE 1600 1536 1568 1536
WIRE 1472 1552 896 1552
WIRE -128 1568 -128 1456
WIRE -128 1568 -224 1568
WIRE 432 1584 432 1488
WIRE 432 1584 400 1584
WIRE 1472 1584 1264 1584
WIRE 2144 1600 2144 1584
WIRE 1840 1616 1808 1616
WIRE 672 1648 672 1520
WIRE 672 1648 624 1648
WIRE 2064 1648 2016 1648
WIRE 2256 1648 2224 1648
WIRE 896 1680 896 1552
WIRE 896 1680 848 1680
WIRE 1840 1680 1808 1680
WIRE 1264 1728 1264 1584
WIRE 1264 1728 1120 1728
WIRE 2144 1728 2144 1696
FLAG 1424 304 A_0
IOPIN 1424 304 In
FLAG 1424 336 B_0
IOPIN 1424 336 In
FLAG 1424 368 Vee
IOPIN 1424 368 In
FLAG 1424 272 Vdd
IOPIN 1424 272 In
FLAG 1520 304 G_0
FLAG 1520 336 P_0
FLAG 1424 480 A_1
IOPIN 1424 480 In
FLAG 1424 512 B_1
IOPIN 1424 512 In
FLAG 1424 544 Vee
IOPIN 1424 544 In
FLAG 1424 448 Vdd
IOPIN 1424 448 In
FLAG 1520 480 G_1
FLAG 1520 512 P_1
FLAG 1424 656 A_2
IOPIN 1424 656 In
FLAG 1424 688 B_2
IOPIN 1424 688 In
FLAG 1424 720 Vee
IOPIN 1424 720 In
FLAG 1424 624 Vdd
IOPIN 1424 624 In
FLAG 1520 656 G_2
FLAG 1520 688 P_2
FLAG 1424 832 A_3
IOPIN 1424 832 In
FLAG 1424 864 B_3
IOPIN 1424 864 In
FLAG 1424 896 Vee
IOPIN 1424 896 In
FLAG 1424 800 Vdd
IOPIN 1424 800 In
FLAG 1520 832 G_3
FLAG 1520 864 P_3
FLAG 352 336 Vdd
IOPIN 352 336 In
FLAG 352 464 Vee
IOPIN 352 464 In
FLAG 144 336 Vdd
IOPIN 144 336 In
FLAG 144 464 Vee
IOPIN 144 464 In
FLAG -208 304 Vdd
IOPIN -208 304 In
FLAG -208 432 Vee
IOPIN -208 432 In
FLAG -432 304 Vdd
IOPIN -432 304 In
FLAG -432 432 Vee
IOPIN -432 432 In
FLAG -64 432 G_0
FLAG 480 400 Co_0
FLAG -576 336 P_0
FLAG -576 400 Cin
IOPIN -576 400 In
FLAG -208 640 Vdd
IOPIN -208 640 In
FLAG -208 768 Vee
IOPIN -208 768 In
FLAG -432 640 Vdd
IOPIN -432 640 In
FLAG -432 768 Vee
IOPIN -432 768 In
FLAG -576 672 P_1
FLAG -256 928 Vdd
IOPIN -256 928 In
FLAG -256 1056 Vee
IOPIN -256 1056 In
FLAG -256 960 P_0
FLAG -256 992 P_1
FLAG -256 1024 Cin
IOPIN -256 1024 In
FLAG 64 960 Vee
IOPIN 64 960 In
FLAG 64 832 Vdd
IOPIN 64 832 In
FLAG 64 928 G_1
FLAG 192 896 Co_1
FLAG 96 1440 Co_2
FLAG 1088 784 Vdd
IOPIN 1088 784 In
FLAG 1088 976 Vee
IOPIN 1088 976 In
FLAG 1216 880 Co_3
FLAG -320 1488 Vdd
IOPIN -320 1488 In
FLAG -320 1648 Vee
IOPIN -320 1648 In
FLAG -224 1200 Vdd
IOPIN -224 1200 In
FLAG -224 1328 Vee
IOPIN -224 1328 In
FLAG -448 1200 Vdd
IOPIN -448 1200 In
FLAG -448 1328 Vee
IOPIN -448 1328 In
FLAG -592 1232 P_2
FLAG -544 1424 Vdd
IOPIN -544 1424 In
FLAG -544 1552 Vee
IOPIN -544 1552 In
FLAG -544 1456 P_1
FLAG -544 1488 P_2
FLAG -32 1520 Vee
IOPIN -32 1520 In
FLAG -32 1360 Vdd
IOPIN -32 1360 In
FLAG -32 1488 G_2
FLAG -576 736 G_0
FLAG -592 1296 G_1
FLAG -544 1520 G_0
FLAG -320 1552 P_1
FLAG -320 1584 P_2
FLAG -320 1616 Cin
IOPIN -320 1616 In
FLAG -320 1520 P_0
FLAG 1088 944 G_3
FLAG 640 928 Vdd
IOPIN 640 928 In
FLAG 640 1088 Vee
IOPIN 640 1088 In
FLAG 736 640 Vdd
IOPIN 736 640 In
FLAG 736 768 Vee
IOPIN 736 768 In
FLAG 512 640 Vdd
IOPIN 512 640 In
FLAG 512 768 Vee
IOPIN 512 768 In
FLAG 368 672 P_3
FLAG 416 880 Vdd
IOPIN 416 880 In
FLAG 416 1008 Vee
IOPIN 416 1008 In
FLAG 416 912 P_2
FLAG 416 944 P_3
FLAG 368 736 G_2
FLAG 416 976 G_1
FLAG 640 960 P_1
FLAG 640 992 P_2
FLAG 864 944 Vdd
IOPIN 864 944 In
FLAG 864 1136 Vee
IOPIN 864 1136 In
FLAG 864 1008 P_1
FLAG 864 1040 P_2
FLAG 864 1104 Cin
IOPIN 864 1104 In
FLAG 864 976 P_0
FLAG 864 1072 P_3
FLAG 640 1056 G_0
FLAG 640 1024 P_3
FLAG 2144 624 Vdd
IOPIN 2144 624 In
FLAG 2144 768 Vee
IOPIN 2144 768 In
FLAG 1936 752 Vee
IOPIN 1936 752 In
FLAG 1936 624 Vdd
IOPIN 1936 624 In
FLAG 1808 656 P_3
FLAG 1808 720 Co_2
FLAG 2144 944 Vdd
IOPIN 2144 944 In
FLAG 2144 1088 Vee
IOPIN 2144 1088 In
FLAG 1936 1072 Vee
IOPIN 1936 1072 In
FLAG 1936 944 Vdd
IOPIN 1936 944 In
FLAG 1808 976 P_2
FLAG 1808 1040 Co_1
FLAG 2256 688 S3
IOPIN 2256 688 Out
FLAG 2256 1008 S2
IOPIN 2256 1008 Out
FLAG 2144 1264 Vdd
IOPIN 2144 1264 In
FLAG 2144 1408 Vee
IOPIN 2144 1408 In
FLAG 1936 1392 Vee
IOPIN 1936 1392 In
FLAG 1936 1264 Vdd
IOPIN 1936 1264 In
FLAG 1808 1296 P_1
FLAG 1808 1360 Co_0
FLAG 2144 1584 Vdd
IOPIN 2144 1584 In
FLAG 2144 1728 Vee
IOPIN 2144 1728 In
FLAG 1936 1712 Vee
IOPIN 1936 1712 In
FLAG 1936 1584 Vdd
IOPIN 1936 1584 In
FLAG 1808 1616 P_0
FLAG 1808 1680 Cin
IOPIN 1808 1680 In
FLAG 2256 1328 S1
IOPIN 2256 1328 Out
FLAG 2256 1648 S0
IOPIN 2256 1648 Out
FLAG 1424 1008 A_4
IOPIN 1424 1008 In
FLAG 1424 1040 B_4
IOPIN 1424 1040 In
FLAG 1424 1072 Vee
IOPIN 1424 1072 In
FLAG 1424 976 Vdd
IOPIN 1424 976 In
FLAG 1520 1008 G_4
FLAG 1520 1040 P_4
FLAG 2144 336 Vdd
IOPIN 2144 336 In
FLAG 2144 480 Vee
IOPIN 2144 480 In
FLAG 1936 464 Vee
IOPIN 1936 464 In
FLAG 1936 336 Vdd
IOPIN 1936 336 In
FLAG 1808 368 P_4
FLAG 1808 432 Co_3
FLAG 2256 400 S4
IOPIN 2256 400 Out
FLAG 1472 1424 Vdd
IOPIN 1472 1424 In
FLAG 1472 1648 Vee
IOPIN 1472 1648 In
FLAG 1600 1536 Co_4
IOPIN 1600 1536 Out
FLAG 1472 1616 G_4
FLAG 528 1568 Vdd
IOPIN 528 1568 In
FLAG 528 1728 Vee
IOPIN 528 1728 In
FLAG 624 1280 Vdd
IOPIN 624 1280 In
FLAG 624 1408 Vee
IOPIN 624 1408 In
FLAG 400 1280 Vdd
IOPIN 400 1280 In
FLAG 400 1408 Vee
IOPIN 400 1408 In
FLAG 256 1312 P_4
FLAG 304 1520 Vdd
IOPIN 304 1520 In
FLAG 304 1648 Vee
IOPIN 304 1648 In
FLAG 304 1552 P_3
FLAG 304 1584 P_4
FLAG 256 1376 G_3
FLAG 304 1616 G_2
FLAG 528 1600 P_2
FLAG 528 1632 P_3
FLAG 752 1584 Vdd
IOPIN 752 1584 In
FLAG 752 1776 Vee
IOPIN 752 1776 In
FLAG 752 1648 P_2
FLAG 752 1680 P_3
FLAG 752 1744 G_0
FLAG 752 1616 P_1
FLAG 752 1712 P_4
FLAG 528 1696 G_1
FLAG 528 1664 P_4
FLAG 1024 1616 Vdd
IOPIN 1024 1616 In
FLAG 1024 1840 Vee
IOPIN 1024 1840 In
FLAG 1024 1680 P_1
FLAG 1024 1712 P_2
FLAG 1024 1808 Cin
IOPIN 1024 1808 In
FLAG 1024 1648 P_0
FLAG 1024 1744 P_3
FLAG 1024 1776 P_4
SYMBOL INVx1 -208 368 R0
SYMATTR InstName X32
SYMBOL INVx1 352 400 R0
SYMATTR InstName X33
SYMBOL INVx1 -224 1264 R0
SYMATTR InstName X34
SYMBOL INVx1 736 704 R0
SYMATTR InstName X35
SYMBOL INVx1 -208 704 R0
SYMATTR InstName X36
SYMBOL INVx1 2144 1008 R0
SYMATTR InstName X37
SYMBOL INVx1 2144 688 R0
SYMATTR InstName X38
SYMBOL INVx1 2144 1328 R0
SYMATTR InstName X39
SYMBOL INVx1 2144 1648 R0
SYMATTR InstName X40
SYMBOL NAND2x1 -432 368 R0
SYMATTR InstName X41
SYMBOL NAND2x1 -448 1264 R0
SYMATTR InstName X42
SYMBOL NAND2x1 512 704 R0
SYMATTR InstName X43
SYMBOL NAND2x1 -432 704 R0
SYMATTR InstName X44
SYMBOL NOR2x1 112 400 R0
SYMATTR InstName X45
SYMBOL XNOR2x1 1904 1648 R0
SYMATTR InstName X46
SYMBOL XNOR2x1 1904 1328 R0
SYMATTR InstName X47
SYMBOL XNOR2x1 1904 1008 R0
SYMATTR InstName X48
SYMBOL XNOR2x1 1904 688 R0
SYMATTR InstName X49
SYMBOL CLA\\5-NOR 1136 880 R0
SYMATTR InstName X5
SYMBOL 4-NOR 16 1440 R0
SYMATTR InstName X6
SYMBOL 3-NOR 112 896 R0
SYMATTR InstName X7
SYMBOL 3-NAND -208 992 R0
SYMATTR InstName X8
SYMBOL 3-NAND -496 1488 R0
SYMATTR InstName X9
SYMBOL 3-NAND 464 944 R0
SYMATTR InstName X10
SYMBOL 4-NAND -272 1568 R0
SYMATTR InstName X11
SYMBOL 4-NAND 688 1008 R0
SYMATTR InstName X12
SYMBOL 5-NAND 912 1040 R0
SYMATTR InstName X13
SYMBOL PG 1472 320 R0
SYMATTR InstName X1
SYMBOL PG 1472 496 R0
SYMATTR InstName X2
SYMBOL PG 1472 672 R0
SYMATTR InstName X3
SYMBOL PG 1472 848 R0
SYMATTR InstName X4
SYMBOL PG 1472 1024 R0
SYMATTR InstName X14
SYMBOL INVx1 2144 400 R0
SYMATTR InstName X15
SYMBOL XNOR2x1 1904 400 R0
SYMATTR InstName X16
SYMBOL INVx1 624 1344 R0
SYMATTR InstName X17
SYMBOL NAND2x1 400 1344 R0
SYMATTR InstName X18
SYMBOL 3-NAND 352 1584 R0
SYMATTR InstName X20
SYMBOL 4-NAND 576 1648 R0
SYMATTR InstName X21
SYMBOL 5-NAND 800 1680 R0
SYMATTR InstName X22
SYMBOL 6-NAND 1072 1728 R0
SYMATTR InstName X19
SYMBOL 6-NOR 1520 1536 R0
SYMATTR InstName X23
TEXT -632 584 Left 2 ;Co_1
TEXT -632 1144 Left 2 ;Co_2
TEXT 328 584 Left 2 ;Co_3
TEXT -632 240 Left 2 ;Co_0
TEXT 216 1224 Left 2 ;Co_4
RECTANGLE Normal -656 560 272 1104
RECTANGLE Normal -656 224 560 544
RECTANGLE Normal 176 1696 -656 1120
RECTANGLE Normal 1312 1184 304 560
RECTANGLE Normal 1712 1888 192 1200
