Version 4.1
SHEET 1 2360 1588
WIRE 1808 208 1808 192
WIRE 1504 224 1472 224
WIRE 1728 256 1680 256
WIRE 1920 256 1888 256
WIRE 1504 288 1472 288
WIRE 1808 336 1808 304
WIRE -256 480 -256 464
WIRE 912 480 912 464
WIRE -576 496 -624 496
WIRE 592 496 544 496
WIRE 208 512 208 496
WIRE -336 528 -384 528
WIRE -112 528 -176 528
WIRE 832 528 784 528
WIRE 1056 528 992 528
WIRE 1808 528 1808 512
WIRE 1504 544 1472 544
WIRE -576 560 -624 560
WIRE 128 560 80 560
WIRE 320 560 288 560
WIRE 592 560 544 560
WIRE 1728 576 1680 576
WIRE 1920 576 1888 576
WIRE -256 592 -256 576
WIRE -112 592 -160 592
WIRE 912 592 912 576
WIRE 1504 608 1472 608
WIRE 208 624 208 608
WIRE 1056 640 1056 528
WIRE 1136 640 1056 640
WIRE 1808 656 1808 624
WIRE 1136 672 720 672
WIRE 1264 688 1232 688
WIRE 1136 704 960 704
WIRE 720 768 720 672
WIRE 720 768 688 768
WIRE 960 832 960 704
WIRE 960 832 912 832
WIRE -256 848 -256 832
WIRE 1808 848 1808 832
WIRE -576 864 -624 864
WIRE 1504 864 1472 864
WIRE -336 896 -384 896
WIRE -80 896 -176 896
WIRE 1728 896 1680 896
WIRE 1920 896 1888 896
WIRE -576 928 -624 928
WIRE 1504 928 1472 928
WIRE -256 960 -256 944
WIRE 1808 976 1808 944
WIRE -80 1008 -80 896
WIRE 16 1008 -80 1008
WIRE 16 1040 -448 1040
WIRE 144 1040 112 1040
WIRE -448 1120 -448 1040
WIRE -448 1120 -480 1120
FLAG -224 256 A_0
IOPIN -224 256 In
FLAG -224 288 B_0
IOPIN -224 288 In
FLAG -224 320 Vee
IOPIN -224 320 In
FLAG -224 224 Vdd
IOPIN -224 224 In
FLAG -128 256 G_0
FLAG -128 288 P_0
FLAG 32 256 A_1
IOPIN 32 256 In
FLAG 32 288 B_1
IOPIN 32 288 In
FLAG 32 320 Vee
IOPIN 32 320 In
FLAG 32 224 Vdd
IOPIN 32 224 In
FLAG 128 256 G_1
FLAG 128 288 P_1
FLAG 288 256 A_2
IOPIN 288 256 In
FLAG 288 288 B_2
IOPIN 288 288 In
FLAG 288 320 Vee
IOPIN 288 320 In
FLAG 288 224 Vdd
IOPIN 288 224 In
FLAG 384 256 G_2
FLAG 384 288 P_2
FLAG 544 256 A_3
IOPIN 544 256 In
FLAG 544 288 B_3
IOPIN 544 288 In
FLAG 544 320 Vee
IOPIN 544 320 In
FLAG 544 224 Vdd
IOPIN 544 224 In
FLAG 640 256 G_3
FLAG 640 288 P_3
FLAG 208 496 Vdd
IOPIN 208 496 In
FLAG 208 624 Vee
IOPIN 208 624 In
FLAG 0 496 Vdd
IOPIN 0 496 In
FLAG 0 624 Vee
IOPIN 0 624 In
FLAG -576 288 G_0
FLAG -496 288 Co_0
FLAG -256 464 Vdd
IOPIN -256 464 In
FLAG -256 592 Vee
IOPIN -256 592 In
FLAG -480 464 Vdd
IOPIN -480 464 In
FLAG -480 592 Vee
IOPIN -480 592 In
FLAG -624 496 P_1
FLAG -160 592 G_1
FLAG 320 560 Co_1
FLAG 144 1040 Co_2
FLAG 1136 608 Vdd
IOPIN 1136 608 In
FLAG 1136 768 Vee
IOPIN 1136 768 In
FLAG 1264 688 Co_3
IOPIN 1264 688 Out
FLAG -256 832 Vdd
IOPIN -256 832 In
FLAG -256 960 Vee
IOPIN -256 960 In
FLAG -480 832 Vdd
IOPIN -480 832 In
FLAG -480 960 Vee
IOPIN -480 960 In
FLAG -624 864 P_2
FLAG -576 1056 Vdd
IOPIN -576 1056 In
FLAG -576 1184 Vee
IOPIN -576 1184 In
FLAG -576 1088 P_1
FLAG -576 1120 P_2
FLAG 16 1104 Vee
IOPIN 16 1104 In
FLAG 16 976 Vdd
IOPIN 16 976 In
FLAG 16 1072 G_2
FLAG -624 560 G_0
FLAG -624 928 G_1
FLAG -576 1152 G_0
FLAG 1136 736 G_3
FLAG 816 752 Vdd
IOPIN 816 752 In
FLAG 816 912 Vee
IOPIN 816 912 In
FLAG 912 464 Vdd
IOPIN 912 464 In
FLAG 912 592 Vee
IOPIN 912 592 In
FLAG 688 464 Vdd
IOPIN 688 464 In
FLAG 688 592 Vee
IOPIN 688 592 In
FLAG 544 496 P_3
FLAG 592 704 Vdd
IOPIN 592 704 In
FLAG 592 832 Vee
IOPIN 592 832 In
FLAG 592 736 P_2
FLAG 592 768 P_3
FLAG 544 560 G_2
FLAG 592 800 G_1
FLAG 816 784 P_1
FLAG 816 816 P_2
FLAG 816 880 G_0
FLAG 816 848 P_3
FLAG 1808 192 Vdd
IOPIN 1808 192 In
FLAG 1808 336 Vee
IOPIN 1808 336 In
FLAG 1600 320 Vee
IOPIN 1600 320 In
FLAG 1600 192 Vdd
IOPIN 1600 192 In
FLAG 1472 224 P_3
FLAG 1472 288 Co_2
FLAG 1808 512 Vdd
IOPIN 1808 512 In
FLAG 1808 656 Vee
IOPIN 1808 656 In
FLAG 1600 640 Vee
IOPIN 1600 640 In
FLAG 1600 512 Vdd
IOPIN 1600 512 In
FLAG 1472 544 P_2
FLAG 1472 608 Co_1
FLAG 1920 256 S3
IOPIN 1920 256 Out
FLAG 1920 576 S2
IOPIN 1920 576 Out
FLAG 1808 832 Vdd
IOPIN 1808 832 In
FLAG 1808 976 Vee
IOPIN 1808 976 In
FLAG 1600 960 Vee
IOPIN 1600 960 In
FLAG 1600 832 Vdd
IOPIN 1600 832 In
FLAG 1472 864 P_1
FLAG 1472 928 Co_0
FLAG 1616 1136 P_0
FLAG 1920 896 S1
IOPIN 1920 896 Out
FLAG 1696 1136 S0
IOPIN 1696 1136 Out
SYMBOL INVx1 208 560 R0
SYMATTR InstName X33
SYMBOL INVx1 -256 896 R0
SYMATTR InstName X34
SYMBOL INVx1 912 528 R0
SYMATTR InstName X35
SYMBOL INVx1 -256 528 R0
SYMATTR InstName X36
SYMBOL INVx1 1808 576 R0
SYMATTR InstName X37
SYMBOL INVx1 1808 256 R0
SYMATTR InstName X38
SYMBOL INVx1 1808 896 R0
SYMATTR InstName X39
SYMBOL NAND2x1 -480 896 R0
SYMATTR InstName X42
SYMBOL NAND2x1 688 528 R0
SYMATTR InstName X43
SYMBOL NAND2x1 -480 528 R0
SYMATTR InstName X44
SYMBOL NOR2x1 -32 560 R0
SYMATTR InstName X45
SYMBOL XNOR2x1 1568 896 R0
SYMATTR InstName X47
SYMBOL XNOR2x1 1568 576 R0
SYMATTR InstName X48
SYMBOL XNOR2x1 1568 256 R0
SYMATTR InstName X49
SYMBOL NANDs\\3-NAND -528 1120 R0
SYMATTR InstName X5
SYMBOL NANDs\\3-NAND 640 768 R0
SYMATTR InstName X8
SYMBOL NANDs\\4-NAND 864 832 R0
SYMATTR InstName X11
SYMBOL NORs\\3-NOR 64 1040 R0
SYMATTR InstName X13
SYMBOL NORs\\4-NOR 1184 688 R0
SYMATTR InstName X14
SYMBOL PG -176 272 R0
SYMATTR InstName X1
SYMBOL PG 80 272 R0
SYMATTR InstName X2
SYMBOL PG 336 272 R0
SYMATTR InstName X3
SYMBOL PG 592 272 R0
SYMATTR InstName X4
SYMBOL voltage -480 288 R90
WINDOW 0 -32 56 VBottom 2
WINDOW 3 32 56 VTop 2
WINDOW 123 0 0 Left 0
WINDOW 39 0 0 Left 0
SYMATTR InstName V1
SYMATTR Value 0
SYMBOL voltage 1712 1136 R90
WINDOW 0 -32 56 VBottom 2
WINDOW 3 32 56 VTop 2
WINDOW 123 0 0 Left 0
WINDOW 39 0 0 Left 0
SYMATTR InstName V2
SYMATTR Value 0
TEXT -664 408 Left 2 ;Co_1
TEXT -664 776 Left 2 ;Co_2
TEXT 504 408 Left 2 ;Co_3
TEXT -664 240 Left 2 ;Co_0
RECTANGLE Normal -688 384 400 720
RECTANGLE Normal -688 224 -384 352
RECTANGLE Normal 240 1232 -688 752
RECTANGLE Normal 1360 960 480 384
