Version 4.1
SHEET 1 2808 2456
WIRE 224 352 224 336
WIRE 784 352 784 336
WIRE 1344 352 1344 336
WIRE 1888 352 1888 336
WIRE -80 368 -112 368
WIRE 480 368 448 368
WIRE 1040 368 1008 368
WIRE 1584 368 1552 368
WIRE 144 400 96 400
WIRE 336 400 304 400
WIRE 704 400 656 400
WIRE 896 400 864 400
WIRE 1264 400 1216 400
WIRE 1456 400 1424 400
WIRE 1808 400 1760 400
WIRE 2000 400 1968 400
WIRE -80 432 -112 432
WIRE 480 432 448 432
WIRE 1040 432 1008 432
WIRE 1584 432 1552 432
WIRE -512 464 -576 464
WIRE 224 480 224 448
WIRE 784 480 784 448
WIRE 1344 480 1344 448
WIRE 1888 480 1888 448
WIRE -208 656 -208 640
WIRE 848 656 848 640
WIRE -528 672 -576 672
WIRE 528 672 480 672
WIRE 208 688 208 672
WIRE -288 704 -336 704
WIRE -80 704 -128 704
WIRE -64 704 -80 704
WIRE 768 704 720 704
WIRE 944 704 928 704
WIRE -528 736 -576 736
WIRE 128 736 112 736
WIRE 336 736 288 736
WIRE 528 736 480 736
WIRE -208 768 -208 752
WIRE -80 768 -128 768
WIRE 848 768 848 752
WIRE 208 800 208 784
WIRE 944 832 944 704
WIRE 1024 832 944 832
WIRE 1024 864 656 864
WIRE 1152 864 1120 864
WIRE 656 928 656 864
WIRE 656 928 624 928
WIRE -224 1008 -224 992
WIRE -544 1024 -592 1024
WIRE -304 1056 -352 1056
WIRE -112 1056 -144 1056
WIRE -544 1088 -592 1088
WIRE -224 1120 -224 1104
WIRE 656 1152 656 1136
WIRE -112 1168 -112 1056
WIRE -16 1168 -112 1168
WIRE 336 1168 288 1168
WIRE -16 1200 -464 1200
WIRE 576 1200 528 1200
WIRE 848 1200 736 1200
WIRE 112 1216 80 1216
WIRE -16 1232 -256 1232
WIRE 336 1232 288 1232
WIRE -464 1264 -464 1200
WIRE -464 1264 -480 1264
WIRE 656 1264 656 1248
WIRE 848 1312 848 1200
WIRE 928 1312 848 1312
WIRE -256 1344 -256 1232
WIRE -256 1344 -272 1344
WIRE 928 1344 448 1344
WIRE 928 1376 640 1376
WIRE 1056 1376 1024 1376
WIRE 928 1408 832 1408
WIRE 448 1440 448 1344
WIRE 448 1440 432 1440
WIRE 640 1504 640 1376
WIRE 640 1504 624 1504
WIRE 832 1536 832 1408
WIRE 832 1536 816 1536
FLAG 1360 704 A_0
IOPIN 1360 704 In
FLAG 1360 736 B_0
IOPIN 1360 736 In
FLAG 1360 768 Vee
IOPIN 1360 768 In
FLAG 1360 672 Vdd
IOPIN 1360 672 In
FLAG 1456 704 G_0
FLAG 1456 736 P_0
FLAG 1568 704 A_1
IOPIN 1568 704 In
FLAG 1568 736 B_1
IOPIN 1568 736 In
FLAG 1568 768 Vee
IOPIN 1568 768 In
FLAG 1568 672 Vdd
IOPIN 1568 672 In
FLAG 1664 704 G_1
FLAG 1664 736 P_1
FLAG 1360 896 A_2
IOPIN 1360 896 In
FLAG 1360 928 B_2
IOPIN 1360 928 In
FLAG 1360 960 Vee
IOPIN 1360 960 In
FLAG 1360 864 Vdd
IOPIN 1360 864 In
FLAG 1456 896 G_2
FLAG 1456 928 P_2
FLAG 1568 896 A_3
IOPIN 1568 896 In
FLAG 1568 928 B_3
IOPIN 1568 928 In
FLAG 1568 960 Vee
IOPIN 1568 960 In
FLAG 1568 864 Vdd
IOPIN 1568 864 In
FLAG 1664 896 G_3
FLAG 1664 928 P_3
FLAG -576 464 G_0
FLAG -512 464 Co_0
FLAG -208 640 Vdd
IOPIN -208 640 In
FLAG -208 768 Vee
IOPIN -208 768 In
FLAG -432 640 Vdd
IOPIN -432 640 In
FLAG -432 768 Vee
IOPIN -432 768 In
FLAG -576 672 P_1
FLAG 32 800 Vee
IOPIN 32 800 In
FLAG 32 672 Vdd
IOPIN 32 672 In
FLAG -128 768 G_1
FLAG 336 736 Co_1
FLAG -16 1136 Vdd
IOPIN -16 1136 In
FLAG -16 1296 Vee
IOPIN -16 1296 In
FLAG 112 1216 Co_3
FLAG 848 640 Vdd
IOPIN 848 640 In
FLAG 848 768 Vee
IOPIN 848 768 In
FLAG 624 640 Vdd
IOPIN 624 640 In
FLAG 624 768 Vee
IOPIN 624 768 In
FLAG 480 672 P_2
FLAG 528 864 Vdd
IOPIN 528 864 In
FLAG 528 992 Vee
IOPIN 528 992 In
FLAG 528 896 P_1
FLAG 528 928 P_2
FLAG 1024 928 Vee
IOPIN 1024 928 In
FLAG 1024 800 Vdd
IOPIN 1024 800 In
FLAG 1024 896 G_2
FLAG -576 736 G_0
FLAG 480 736 G_1
FLAG 528 960 G_0
FLAG -16 1264 G_3
FLAG -368 1264 Vdd
IOPIN -368 1264 In
FLAG -368 1424 Vee
IOPIN -368 1424 In
FLAG -224 992 Vdd
IOPIN -224 992 In
FLAG -224 1120 Vee
IOPIN -224 1120 In
FLAG -448 992 Vdd
IOPIN -448 992 In
FLAG -448 1120 Vee
IOPIN -448 1120 In
FLAG -592 1024 P_3
FLAG -576 1200 Vdd
IOPIN -576 1200 In
FLAG -576 1328 Vee
IOPIN -576 1328 In
FLAG -576 1232 P_2
FLAG -576 1264 P_3
FLAG -592 1088 G_2
FLAG -576 1296 G_1
FLAG -368 1296 P_1
FLAG -368 1328 P_2
FLAG -368 1392 G_0
FLAG -368 1360 P_3
FLAG 1344 336 Vdd
IOPIN 1344 336 In
FLAG 1344 480 Vee
IOPIN 1344 480 In
FLAG 1136 464 Vee
IOPIN 1136 464 In
FLAG 1136 336 Vdd
IOPIN 1136 336 In
FLAG 1008 368 P_3
FLAG 1008 432 Co_2
FLAG 784 336 Vdd
IOPIN 784 336 In
FLAG 784 480 Vee
IOPIN 784 480 In
FLAG 576 464 Vee
IOPIN 576 464 In
FLAG 576 336 Vdd
IOPIN 576 336 In
FLAG 448 368 P_2
FLAG 448 432 Co_1
FLAG 1456 400 S3
IOPIN 1456 400 Out
FLAG 896 400 S2
IOPIN 896 400 Out
FLAG 224 336 Vdd
IOPIN 224 336 In
FLAG 224 480 Vee
IOPIN 224 480 In
FLAG 16 464 Vee
IOPIN 16 464 In
FLAG 16 336 Vdd
IOPIN 16 336 In
FLAG -112 368 P_1
FLAG -112 432 Co_0
FLAG 336 400 S1
IOPIN 336 400 Out
FLAG 1440 1120 A_4
IOPIN 1440 1120 In
FLAG 1440 1152 B_4
IOPIN 1440 1152 In
FLAG 1440 1184 Vee
IOPIN 1440 1184 In
FLAG 1440 1088 Vdd
IOPIN 1440 1088 In
FLAG 1536 1120 G_4
FLAG 1536 1152 P_4
FLAG 1888 336 Vdd
IOPIN 1888 336 In
FLAG 1888 480 Vee
IOPIN 1888 480 In
FLAG 1680 464 Vee
IOPIN 1680 464 In
FLAG 1680 336 Vdd
IOPIN 1680 336 In
FLAG 1552 368 P_4
FLAG 1552 432 Co_3
FLAG 2000 400 S4
IOPIN 2000 400 Out
FLAG 928 1280 Vdd
IOPIN 928 1280 In
FLAG 928 1472 Vee
IOPIN 928 1472 In
FLAG 1056 1376 Co_4
IOPIN 1056 1376 Out
FLAG 928 1440 G_4
FLAG 528 1424 Vdd
IOPIN 528 1424 In
FLAG 528 1584 Vee
IOPIN 528 1584 In
FLAG 656 1136 Vdd
IOPIN 656 1136 In
FLAG 656 1264 Vee
IOPIN 656 1264 In
FLAG 432 1136 Vdd
IOPIN 432 1136 In
FLAG 432 1264 Vee
IOPIN 432 1264 In
FLAG 288 1168 P_4
FLAG 336 1376 Vdd
IOPIN 336 1376 In
FLAG 336 1504 Vee
IOPIN 336 1504 In
FLAG 336 1408 P_3
FLAG 336 1440 P_4
FLAG 288 1232 G_3
FLAG 336 1472 G_2
FLAG 528 1456 P_2
FLAG 528 1488 P_3
FLAG 720 1440 Vdd
IOPIN 720 1440 In
FLAG 720 1632 Vee
IOPIN 720 1632 In
FLAG 720 1504 P_2
FLAG 720 1536 P_3
FLAG 720 1600 G_0
FLAG 720 1472 P_1
FLAG 720 1568 P_4
FLAG 528 1552 G_1
FLAG 528 1520 P_4
FLAG 208 672 Vdd
IOPIN 208 672 In
FLAG 208 800 Vee
IOPIN 208 800 In
FLAG 1152 864 Co_2
FLAG -320 416 P_0
FLAG -240 416 S0
IOPIN -240 416 Out
SYMBOL INVx1 848 704 R0
SYMATTR InstName X34
SYMBOL INVx1 -224 1056 R0
SYMATTR InstName X35
SYMBOL INVx1 -208 704 R0
SYMATTR InstName X36
SYMBOL INVx1 784 400 R0
SYMATTR InstName X37
SYMBOL INVx1 1344 400 R0
SYMATTR InstName X38
SYMBOL INVx1 224 400 R0
SYMATTR InstName X39
SYMBOL NAND2x1 624 704 R0
SYMATTR InstName X42
SYMBOL NAND2x1 -448 1056 R0
SYMATTR InstName X43
SYMBOL NAND2x1 -432 704 R0
SYMATTR InstName X44
SYMBOL XNOR2x1 -16 400 R0
SYMATTR InstName X47
SYMBOL XNOR2x1 544 400 R0
SYMATTR InstName X48
SYMBOL XNOR2x1 1104 400 R0
SYMATTR InstName X49
SYMBOL PG 1408 720 R0
SYMATTR InstName X1
SYMBOL PG 1616 720 R0
SYMATTR InstName X2
SYMBOL PG 1408 912 R0
SYMATTR InstName X3
SYMBOL PG 1616 912 R0
SYMATTR InstName X4
SYMBOL PG 1488 1136 R0
SYMATTR InstName X14
SYMBOL INVx1 1888 400 R0
SYMATTR InstName X15
SYMBOL XNOR2x1 1648 400 R0
SYMATTR InstName X16
SYMBOL INVx1 656 1200 R0
SYMATTR InstName X17
SYMBOL NAND2x1 432 1200 R0
SYMATTR InstName X18
SYMBOL NANDs\\3-NAND 576 928 R0
SYMATTR InstName X25
SYMBOL NANDs\\3-NAND -528 1264 R0
SYMATTR InstName X26
SYMBOL NANDs\\3-NAND 384 1440 R0
SYMATTR InstName X27
SYMBOL NANDs\\4-NAND -320 1344 R0
SYMATTR InstName X29
SYMBOL NANDs\\4-NAND 576 1504 R0
SYMATTR InstName X30
SYMBOL NANDs\\5-NAND 768 1536 R0
SYMATTR InstName X50
SYMBOL INVx1 208 736 R0
SYMATTR InstName X10
SYMBOL voltage -224 416 R90
WINDOW 0 -32 56 VBottom 2
WINDOW 3 32 56 VTop 2
WINDOW 123 0 0 Left 0
WINDOW 39 0 0 Left 0
SYMATTR InstName V1
SYMATTR Value 0
SYMBOL NORs\\5-NOR 976 1376 R0
SYMATTR InstName X5
SYMBOL NORs\\4-NOR 32 1216 R0
SYMATTR InstName X6
SYMBOL NORs\\3-NOR 1072 864 R0
SYMATTR InstName X7
SYMBOL NOR2x1 0 736 R0
SYMATTR InstName X8
TEXT -632 584 Left 2 ;Co_1
TEXT 440 584 Left 2 ;Co_2
TEXT -632 936 Left 2 ;Co_3
TEXT -632 400 Left 2 ;Co_0
TEXT 248 1080 Left 2 ;Co_4
TEXT 1824 752 Left 2 !.param a=0.7
RECTANGLE Normal -656 560 400 896
RECTANGLE Normal -656 384 -416 528
RECTANGLE Normal 1232 1040 416 560
RECTANGLE Normal 208 1472 -656 912
RECTANGLE Normal 1152 1680 224 1056
