Version 4.1
SHEET 1 2360 1588
WIRE 2160 304 2160 288
WIRE -208 320 -208 304
WIRE 1072 320 1072 304
WIRE 1856 320 1824 320
WIRE -528 336 -576 336
WIRE 752 336 704 336
WIRE 2080 352 2032 352
WIRE 2272 352 2240 352
WIRE -288 368 -336 368
WIRE -32 368 -128 368
WIRE 368 368 368 352
WIRE 992 368 944 368
WIRE 1248 368 1152 368
WIRE -32 384 -32 368
WIRE 48 384 -32 384
WIRE 1856 384 1824 384
WIRE -528 400 -576 400
WIRE 752 400 704 400
WIRE 288 416 240 416
WIRE 496 416 448 416
WIRE -208 432 -208 416
WIRE 1072 432 1072 416
WIRE 2160 432 2160 400
WIRE 48 448 -48 448
WIRE 368 480 368 464
WIRE 1168 528 880 528
WIRE 1248 528 1248 368
WIRE 1344 528 1248 528
WIRE 1168 560 1168 528
WIRE 1344 560 1168 560
WIRE 1472 576 1440 576
WIRE 1344 592 1248 592
WIRE 880 624 880 528
WIRE 880 624 848 624
WIRE 2160 624 2160 608
WIRE 1856 640 1824 640
WIRE 2080 672 2032 672
WIRE 2272 672 2240 672
WIRE 1248 688 1248 592
WIRE 1248 688 1104 688
WIRE -192 704 -192 688
WIRE 1856 704 1824 704
WIRE -512 720 -560 720
WIRE -272 752 -320 752
WIRE -16 752 -112 752
WIRE 2160 752 2160 720
WIRE -512 784 -560 784
WIRE -192 816 -192 800
WIRE -16 912 -16 752
WIRE 80 912 -16 912
WIRE 80 944 -80 944
WIRE 208 944 176 944
WIRE 864 944 864 928
WIRE 2160 944 2160 928
WIRE 544 960 496 960
WIRE 1856 960 1824 960
WIRE 784 992 736 992
WIRE 1056 992 944 992
WIRE 2080 992 2032 992
WIRE 2272 992 2240 992
WIRE 544 1024 496 1024
WIRE 1856 1024 1824 1024
WIRE -80 1040 -80 944
WIRE -80 1040 -144 1040
WIRE 864 1056 864 1040
WIRE 2160 1072 2160 1040
WIRE 1056 1104 1056 992
WIRE 1216 1104 1056 1104
WIRE 1216 1136 672 1136
WIRE 1216 1168 912 1168
WIRE 1344 1168 1312 1168
WIRE 1216 1200 1136 1200
WIRE 672 1232 672 1136
WIRE 672 1232 640 1232
WIRE 2160 1264 2160 1248
WIRE 1856 1280 1824 1280
WIRE 912 1296 912 1168
WIRE 912 1296 864 1296
WIRE 2080 1312 2032 1312
WIRE 2272 1312 2240 1312
WIRE 1136 1328 1136 1200
WIRE 1136 1328 1088 1328
WIRE 1856 1344 1824 1344
WIRE 2160 1392 2160 1360
FLAG 16 112 A_0
IOPIN 16 112 In
FLAG 16 144 B_0
IOPIN 16 144 In
FLAG 16 176 Vee
IOPIN 16 176 In
FLAG 16 80 Vdd
IOPIN 16 80 In
FLAG 112 112 G_0
FLAG 112 144 P_0
FLAG 272 112 A_1
IOPIN 272 112 In
FLAG 272 144 B_1
IOPIN 272 144 In
FLAG 272 176 Vee
IOPIN 272 176 In
FLAG 272 80 Vdd
IOPIN 272 80 In
FLAG 368 112 G_1
FLAG 368 144 P_1
FLAG 528 112 A_2
IOPIN 528 112 In
FLAG 528 144 B_2
IOPIN 528 144 In
FLAG 528 176 Vee
IOPIN 528 176 In
FLAG 528 80 Vdd
IOPIN 528 80 In
FLAG 624 112 G_2
FLAG 624 144 P_2
FLAG 784 112 A_3
IOPIN 784 112 In
FLAG 784 144 B_3
IOPIN 784 144 In
FLAG 784 176 Vee
IOPIN 784 176 In
FLAG 784 80 Vdd
IOPIN 784 80 In
FLAG 880 112 G_3
FLAG 880 144 P_3
FLAG 368 352 Vdd
IOPIN 368 352 In
FLAG 368 480 Vee
IOPIN 368 480 In
FLAG 160 352 Vdd
IOPIN 160 352 In
FLAG 160 480 Vee
IOPIN 160 480 In
FLAG -208 304 Vdd
IOPIN -208 304 In
FLAG -208 432 Vee
IOPIN -208 432 In
FLAG -432 304 Vdd
IOPIN -432 304 In
FLAG -432 432 Vee
IOPIN -432 432 In
FLAG -48 448 G_0
FLAG 496 416 Co_0
FLAG -576 336 P_0
FLAG -576 400 Cin
IOPIN -576 400 In
FLAG -192 688 Vdd
IOPIN -192 688 In
FLAG -192 816 Vee
IOPIN -192 816 In
FLAG -416 688 Vdd
IOPIN -416 688 In
FLAG -416 816 Vee
IOPIN -416 816 In
FLAG -560 720 P_1
FLAG -240 976 Vdd
IOPIN -240 976 In
FLAG -240 1104 Vee
IOPIN -240 1104 In
FLAG -240 1008 P_0
FLAG -240 1040 P_1
FLAG -240 1072 Cin
IOPIN -240 1072 In
FLAG 80 1008 Vee
IOPIN 80 1008 In
FLAG 80 880 Vdd
IOPIN 80 880 In
FLAG 80 976 G_1
FLAG 208 944 Co_1
FLAG 1472 576 Co_2
FLAG 1216 1072 Vdd
IOPIN 1216 1072 In
FLAG 1216 1264 Vee
IOPIN 1216 1264 In
FLAG 1344 1168 Co_3
IOPIN 1344 1168 Out
FLAG 1008 608 Vdd
IOPIN 1008 608 In
FLAG 1008 768 Vee
IOPIN 1008 768 In
FLAG 1072 304 Vdd
IOPIN 1072 304 In
FLAG 1072 432 Vee
IOPIN 1072 432 In
FLAG 848 304 Vdd
IOPIN 848 304 In
FLAG 848 432 Vee
IOPIN 848 432 In
FLAG 704 336 P_2
FLAG 752 560 Vdd
IOPIN 752 560 In
FLAG 752 688 Vee
IOPIN 752 688 In
FLAG 752 592 P_1
FLAG 752 624 P_2
FLAG 1344 656 Vee
IOPIN 1344 656 In
FLAG 1344 496 Vdd
IOPIN 1344 496 In
FLAG 1344 624 G_2
FLAG -560 784 G_0
FLAG 704 400 G_1
FLAG 752 656 G_0
FLAG 1008 672 P_1
FLAG 1008 704 P_2
FLAG 1008 736 Cin
IOPIN 1008 736 In
FLAG 1008 640 P_0
FLAG 1216 1232 G_3
FLAG 768 1216 Vdd
IOPIN 768 1216 In
FLAG 768 1376 Vee
IOPIN 768 1376 In
FLAG 864 928 Vdd
IOPIN 864 928 In
FLAG 864 1056 Vee
IOPIN 864 1056 In
FLAG 640 928 Vdd
IOPIN 640 928 In
FLAG 640 1056 Vee
IOPIN 640 1056 In
FLAG 496 960 P_3
FLAG 544 1168 Vdd
IOPIN 544 1168 In
FLAG 544 1296 Vee
IOPIN 544 1296 In
FLAG 544 1200 P_2
FLAG 544 1232 P_3
FLAG 496 1024 G_2
FLAG 544 1264 G_1
FLAG 768 1248 P_1
FLAG 768 1280 P_2
FLAG 992 1232 Vdd
IOPIN 992 1232 In
FLAG 992 1424 Vee
IOPIN 992 1424 In
FLAG 992 1296 P_1
FLAG 992 1328 P_2
FLAG 992 1392 Cin
IOPIN 992 1392 In
FLAG 992 1264 P_0
FLAG 992 1360 P_3
FLAG 768 1344 G_0
FLAG 768 1312 P_3
FLAG 2160 288 Vdd
IOPIN 2160 288 In
FLAG 2160 432 Vee
IOPIN 2160 432 In
FLAG 1952 416 Vee
IOPIN 1952 416 In
FLAG 1952 288 Vdd
IOPIN 1952 288 In
FLAG 1824 320 P_3
FLAG 1824 384 Co_2
FLAG 2160 608 Vdd
IOPIN 2160 608 In
FLAG 2160 752 Vee
IOPIN 2160 752 In
FLAG 1952 736 Vee
IOPIN 1952 736 In
FLAG 1952 608 Vdd
IOPIN 1952 608 In
FLAG 1824 640 P_2
FLAG 1824 704 Co_1
FLAG 2272 352 S3
IOPIN 2272 352 Out
FLAG 2272 672 S2
IOPIN 2272 672 Out
FLAG 2160 928 Vdd
IOPIN 2160 928 In
FLAG 2160 1072 Vee
IOPIN 2160 1072 In
FLAG 1952 1056 Vee
IOPIN 1952 1056 In
FLAG 1952 928 Vdd
IOPIN 1952 928 In
FLAG 1824 960 P_1
FLAG 1824 1024 Co_0
FLAG 2160 1248 Vdd
IOPIN 2160 1248 In
FLAG 2160 1392 Vee
IOPIN 2160 1392 In
FLAG 1952 1376 Vee
IOPIN 1952 1376 In
FLAG 1952 1248 Vdd
IOPIN 1952 1248 In
FLAG 1824 1280 P_0
FLAG 1824 1344 Cin
IOPIN 1824 1344 In
FLAG 2272 992 S1
IOPIN 2272 992 Out
FLAG 2272 1312 S0
IOPIN 2272 1312 Out
SYMBOL INVx1 -208 368 R0
SYMATTR InstName X32
SYMBOL INVx1 368 416 R0
SYMATTR InstName X33
SYMBOL INVx1 1072 368 R0
SYMATTR InstName X34
SYMBOL INVx1 864 992 R0
SYMATTR InstName X35
SYMBOL INVx1 -192 752 R0
SYMATTR InstName X36
SYMBOL INVx1 2160 672 R0
SYMATTR InstName X37
SYMBOL INVx1 2160 352 R0
SYMATTR InstName X38
SYMBOL INVx1 2160 992 R0
SYMATTR InstName X39
SYMBOL INVx1 2160 1312 R0
SYMATTR InstName X40
SYMBOL NAND2x1 -432 368 R0
SYMATTR InstName X41
SYMBOL NAND2x1 848 368 R0
SYMATTR InstName X42
SYMBOL NAND2x1 640 992 R0
SYMATTR InstName X43
SYMBOL NAND2x1 -416 752 R0
SYMATTR InstName X44
SYMBOL NOR2x1 128 416 R0
SYMATTR InstName X45
SYMBOL XNOR2x1 1920 1312 R0
SYMATTR InstName X46
SYMBOL XNOR2x1 1920 992 R0
SYMATTR InstName X47
SYMBOL XNOR2x1 1920 672 R0
SYMATTR InstName X48
SYMBOL XNOR2x1 1920 352 R0
SYMATTR InstName X49
SYMBOL PG 64 128 R0
SYMATTR InstName X1
SYMBOL PG 320 128 R0
SYMATTR InstName X2
SYMBOL PG 576 128 R0
SYMATTR InstName X3
SYMBOL PG 832 128 R0
SYMATTR InstName X4
SYMBOL NANDs\\3-NAND -192 1040 R0
SYMATTR InstName X14
SYMBOL NANDs\\3-NAND 592 1232 R0
SYMATTR InstName X15
SYMBOL NANDs\\3-NAND 800 624 R0
SYMATTR InstName X16
SYMBOL NANDs\\4-NAND 1056 688 R0
SYMATTR InstName X17
SYMBOL NANDs\\4-NAND 816 1296 R0
SYMATTR InstName X18
SYMBOL NANDs\\5-NAND 1040 1328 R0
SYMATTR InstName X19
SYMBOL NORs\\3-NOR 128 944 R0
SYMATTR InstName X20
SYMBOL NORs\\4-NOR 1392 576 R0
SYMATTR InstName X21
SYMBOL NORs\\5-NOR 1264 1168 R0
SYMATTR InstName X22
TEXT -648 616 Left 2 ;Co_1
TEXT 664 248 Left 2 ;Co_2
TEXT 456 872 Left 2 ;Co_3
TEXT -664 240 Left 2 ;Co_0
RECTANGLE Normal -672 592 400 1200
RECTANGLE Normal -688 224 608 560
RECTANGLE Normal 1584 816 640 224
RECTANGLE Normal 1440 1472 432 848
