Version 4.1
SHEET 1 2376 2456
WIRE -208 320 -208 304
WIRE -528 336 -576 336
WIRE 352 352 352 336
WIRE 1856 352 1856 336
WIRE -288 368 -336 368
WIRE 32 368 -128 368
WIRE 1552 368 1520 368
WIRE -528 400 -576 400
WIRE 272 400 224 400
WIRE 480 400 432 400
WIRE 1776 400 1728 400
WIRE 1968 400 1936 400
WIRE -208 432 -208 416
WIRE 32 432 -64 432
WIRE 1552 432 1520 432
WIRE 352 464 352 448
WIRE 1856 480 1856 448
WIRE 1856 640 1856 624
WIRE -208 656 -208 640
WIRE 736 656 736 640
WIRE 1552 656 1520 656
WIRE -528 672 -576 672
WIRE 416 672 368 672
WIRE 1776 688 1728 688
WIRE 1968 688 1936 688
WIRE -288 704 -336 704
WIRE -32 704 -128 704
WIRE 656 704 608 704
WIRE 928 704 816 704
WIRE 1552 720 1520 720
WIRE -528 736 -576 736
WIRE 416 736 368 736
WIRE -208 768 -208 752
WIRE 736 768 736 752
WIRE 1856 768 1856 736
WIRE 928 816 928 704
WIRE 1088 816 928 816
WIRE 1088 848 544 848
WIRE -32 864 -32 704
WIRE 64 864 -32 864
WIRE 1088 880 784 880
WIRE 1216 880 1184 880
WIRE 64 896 -96 896
WIRE 192 896 160 896
WIRE 1088 912 1008 912
WIRE 544 944 544 848
WIRE 544 944 512 944
WIRE 1856 960 1856 944
WIRE 1552 976 1520 976
WIRE -96 992 -96 896
WIRE -96 992 -160 992
WIRE 784 1008 784 880
WIRE 784 1008 736 1008
WIRE 1776 1008 1728 1008
WIRE 1968 1008 1936 1008
WIRE 1008 1040 1008 912
WIRE 1008 1040 960 1040
WIRE 1552 1040 1520 1040
WIRE 1856 1088 1856 1056
WIRE -224 1216 -224 1200
WIRE -544 1232 -592 1232
WIRE -304 1264 -352 1264
WIRE -112 1264 -144 1264
WIRE 1856 1280 1856 1264
WIRE -544 1296 -592 1296
WIRE 624 1296 624 1280
WIRE 1552 1296 1520 1296
WIRE 304 1312 256 1312
WIRE -224 1328 -224 1312
WIRE 1776 1328 1728 1328
WIRE 1968 1328 1936 1328
WIRE 544 1344 496 1344
WIRE 816 1344 704 1344
WIRE 1552 1360 1520 1360
WIRE 304 1376 256 1376
WIRE -112 1392 -112 1264
WIRE -32 1392 -112 1392
WIRE 624 1408 624 1392
WIRE 1856 1408 1856 1376
WIRE -32 1424 -416 1424
WIRE 96 1440 64 1440
WIRE -32 1456 -128 1456
WIRE 816 1456 816 1344
WIRE 1184 1456 816 1456
WIRE -416 1488 -416 1424
WIRE -416 1488 -448 1488
WIRE 1184 1488 432 1488
WIRE 1184 1520 672 1520
WIRE 1312 1536 1280 1536
WIRE 1184 1552 896 1552
WIRE -128 1568 -128 1456
WIRE -128 1568 -224 1568
WIRE 432 1584 432 1488
WIRE 432 1584 400 1584
WIRE 1184 1584 1104 1584
WIRE 1856 1600 1856 1584
WIRE 1552 1616 1520 1616
WIRE 672 1648 672 1520
WIRE 672 1648 624 1648
WIRE 1776 1648 1728 1648
WIRE 1968 1648 1936 1648
WIRE 896 1680 896 1552
WIRE 896 1680 848 1680
WIRE 1552 1680 1520 1680
WIRE 1104 1728 1104 1584
WIRE 1104 1728 1072 1728
WIRE 1856 1728 1856 1696
FLAG 640 272 A_0
IOPIN 640 272 In
FLAG 640 304 B_0
IOPIN 640 304 In
FLAG 640 336 Vee
IOPIN 640 336 In
FLAG 640 240 Vdd
IOPIN 640 240 In
FLAG 736 272 G_0
FLAG 736 304 P_0
FLAG 640 448 A_1
IOPIN 640 448 In
FLAG 640 480 B_1
IOPIN 640 480 In
FLAG 640 512 Vee
IOPIN 640 512 In
FLAG 640 416 Vdd
IOPIN 640 416 In
FLAG 736 448 G_1
FLAG 736 480 P_1
FLAG 912 272 A_2
IOPIN 912 272 In
FLAG 912 304 B_2
IOPIN 912 304 In
FLAG 912 336 Vee
IOPIN 912 336 In
FLAG 912 240 Vdd
IOPIN 912 240 In
FLAG 1008 272 G_2
FLAG 1008 304 P_2
FLAG 912 448 A_3
IOPIN 912 448 In
FLAG 912 480 B_3
IOPIN 912 480 In
FLAG 912 512 Vee
IOPIN 912 512 In
FLAG 912 416 Vdd
IOPIN 912 416 In
FLAG 1008 448 G_3
FLAG 1008 480 P_3
FLAG 352 336 Vdd
IOPIN 352 336 In
FLAG 352 464 Vee
IOPIN 352 464 In
FLAG 144 336 Vdd
IOPIN 144 336 In
FLAG 144 464 Vee
IOPIN 144 464 In
FLAG -208 304 Vdd
IOPIN -208 304 In
FLAG -208 432 Vee
IOPIN -208 432 In
FLAG -432 304 Vdd
IOPIN -432 304 In
FLAG -432 432 Vee
IOPIN -432 432 In
FLAG -64 432 G_0
FLAG 480 400 Co_0
FLAG -576 336 P_0
FLAG -576 400 Cin
IOPIN -576 400 In
FLAG -208 640 Vdd
IOPIN -208 640 In
FLAG -208 768 Vee
IOPIN -208 768 In
FLAG -432 640 Vdd
IOPIN -432 640 In
FLAG -432 768 Vee
IOPIN -432 768 In
FLAG -576 672 P_1
FLAG -256 928 Vdd
IOPIN -256 928 In
FLAG -256 1056 Vee
IOPIN -256 1056 In
FLAG -256 960 P_0
FLAG -256 992 P_1
FLAG -256 1024 Cin
IOPIN -256 1024 In
FLAG 64 960 Vee
IOPIN 64 960 In
FLAG 64 832 Vdd
IOPIN 64 832 In
FLAG 64 928 G_1
FLAG 192 896 Co_1
FLAG 96 1440 Co_2
FLAG 1088 784 Vdd
IOPIN 1088 784 In
FLAG 1088 976 Vee
IOPIN 1088 976 In
FLAG 1216 880 Co_3
FLAG -320 1488 Vdd
IOPIN -320 1488 In
FLAG -320 1648 Vee
IOPIN -320 1648 In
FLAG -224 1200 Vdd
IOPIN -224 1200 In
FLAG -224 1328 Vee
IOPIN -224 1328 In
FLAG -448 1200 Vdd
IOPIN -448 1200 In
FLAG -448 1328 Vee
IOPIN -448 1328 In
FLAG -592 1232 P_2
FLAG -544 1424 Vdd
IOPIN -544 1424 In
FLAG -544 1552 Vee
IOPIN -544 1552 In
FLAG -544 1456 P_1
FLAG -544 1488 P_2
FLAG -32 1520 Vee
IOPIN -32 1520 In
FLAG -32 1360 Vdd
IOPIN -32 1360 In
FLAG -32 1488 G_2
FLAG -576 736 G_0
FLAG -592 1296 G_1
FLAG -544 1520 G_0
FLAG -320 1552 P_1
FLAG -320 1584 P_2
FLAG -320 1616 Cin
IOPIN -320 1616 In
FLAG -320 1520 P_0
FLAG 1088 944 G_3
FLAG 640 928 Vdd
IOPIN 640 928 In
FLAG 640 1088 Vee
IOPIN 640 1088 In
FLAG 736 640 Vdd
IOPIN 736 640 In
FLAG 736 768 Vee
IOPIN 736 768 In
FLAG 512 640 Vdd
IOPIN 512 640 In
FLAG 512 768 Vee
IOPIN 512 768 In
FLAG 368 672 P_3
FLAG 416 880 Vdd
IOPIN 416 880 In
FLAG 416 1008 Vee
IOPIN 416 1008 In
FLAG 416 912 P_2
FLAG 416 944 P_3
FLAG 368 736 G_2
FLAG 416 976 G_1
FLAG 640 960 P_1
FLAG 640 992 P_2
FLAG 864 944 Vdd
IOPIN 864 944 In
FLAG 864 1136 Vee
IOPIN 864 1136 In
FLAG 864 1008 P_1
FLAG 864 1040 P_2
FLAG 864 1104 Cin
IOPIN 864 1104 In
FLAG 864 976 P_0
FLAG 864 1072 P_3
FLAG 640 1056 G_0
FLAG 640 1024 P_3
FLAG 1856 624 Vdd
IOPIN 1856 624 In
FLAG 1856 768 Vee
IOPIN 1856 768 In
FLAG 1648 752 Vee
IOPIN 1648 752 In
FLAG 1648 624 Vdd
IOPIN 1648 624 In
FLAG 1520 656 P_3
FLAG 1520 720 Co_2
FLAG 1856 944 Vdd
IOPIN 1856 944 In
FLAG 1856 1088 Vee
IOPIN 1856 1088 In
FLAG 1648 1072 Vee
IOPIN 1648 1072 In
FLAG 1648 944 Vdd
IOPIN 1648 944 In
FLAG 1520 976 P_2
FLAG 1520 1040 Co_1
FLAG 1968 688 S3
IOPIN 1968 688 Out
FLAG 1968 1008 S2
IOPIN 1968 1008 Out
FLAG 1856 1264 Vdd
IOPIN 1856 1264 In
FLAG 1856 1408 Vee
IOPIN 1856 1408 In
FLAG 1648 1392 Vee
IOPIN 1648 1392 In
FLAG 1648 1264 Vdd
IOPIN 1648 1264 In
FLAG 1520 1296 P_1
FLAG 1520 1360 Co_0
FLAG 1856 1584 Vdd
IOPIN 1856 1584 In
FLAG 1856 1728 Vee
IOPIN 1856 1728 In
FLAG 1648 1712 Vee
IOPIN 1648 1712 In
FLAG 1648 1584 Vdd
IOPIN 1648 1584 In
FLAG 1520 1616 P_0
FLAG 1520 1680 Cin
IOPIN 1520 1680 In
FLAG 1968 1328 S1
IOPIN 1968 1328 Out
FLAG 1968 1648 S0
IOPIN 1968 1648 Out
FLAG 1152 368 A_4
IOPIN 1152 368 In
FLAG 1152 400 B_4
IOPIN 1152 400 In
FLAG 1152 432 Vee
IOPIN 1152 432 In
FLAG 1152 336 Vdd
IOPIN 1152 336 In
FLAG 1248 368 G_4
FLAG 1248 400 P_4
FLAG 1856 336 Vdd
IOPIN 1856 336 In
FLAG 1856 480 Vee
IOPIN 1856 480 In
FLAG 1648 464 Vee
IOPIN 1648 464 In
FLAG 1648 336 Vdd
IOPIN 1648 336 In
FLAG 1520 368 P_4
FLAG 1520 432 Co_3
FLAG 1968 400 S4
IOPIN 1968 400 Out
FLAG 1184 1424 Vdd
IOPIN 1184 1424 In
FLAG 1184 1648 Vee
IOPIN 1184 1648 In
FLAG 1312 1536 Co_4
IOPIN 1312 1536 Out
FLAG 1184 1616 G_4
FLAG 528 1568 Vdd
IOPIN 528 1568 In
FLAG 528 1728 Vee
IOPIN 528 1728 In
FLAG 624 1280 Vdd
IOPIN 624 1280 In
FLAG 624 1408 Vee
IOPIN 624 1408 In
FLAG 400 1280 Vdd
IOPIN 400 1280 In
FLAG 400 1408 Vee
IOPIN 400 1408 In
FLAG 256 1312 P_4
FLAG 304 1520 Vdd
IOPIN 304 1520 In
FLAG 304 1648 Vee
IOPIN 304 1648 In
FLAG 304 1552 P_3
FLAG 304 1584 P_4
FLAG 256 1376 G_3
FLAG 304 1616 G_2
FLAG 528 1600 P_2
FLAG 528 1632 P_3
FLAG 752 1584 Vdd
IOPIN 752 1584 In
FLAG 752 1776 Vee
IOPIN 752 1776 In
FLAG 752 1648 P_2
FLAG 752 1680 P_3
FLAG 752 1744 G_0
FLAG 752 1616 P_1
FLAG 752 1712 P_4
FLAG 528 1696 G_1
FLAG 528 1664 P_4
FLAG 976 1616 Vdd
IOPIN 976 1616 In
FLAG 976 1840 Vee
IOPIN 976 1840 In
FLAG 976 1680 P_1
FLAG 976 1712 P_2
FLAG 976 1808 Cin
IOPIN 976 1808 In
FLAG 976 1648 P_0
FLAG 976 1744 P_3
FLAG 976 1776 P_4
SYMBOL INVx1 -208 368 R0
SYMATTR InstName X32
SYMBOL INVx1 352 400 R0
SYMATTR InstName X33
SYMBOL INVx1 -224 1264 R0
SYMATTR InstName X34
SYMBOL INVx1 736 704 R0
SYMATTR InstName X35
SYMBOL INVx1 -208 704 R0
SYMATTR InstName X36
SYMBOL INVx1 1856 1008 R0
SYMATTR InstName X37
SYMBOL INVx1 1856 688 R0
SYMATTR InstName X38
SYMBOL INVx1 1856 1328 R0
SYMATTR InstName X39
SYMBOL INVx1 1856 1648 R0
SYMATTR InstName X40
SYMBOL NAND2x1 -432 368 R0
SYMATTR InstName X41
SYMBOL NAND2x1 -448 1264 R0
SYMATTR InstName X42
SYMBOL NAND2x1 512 704 R0
SYMATTR InstName X43
SYMBOL NAND2x1 -432 704 R0
SYMATTR InstName X44
SYMBOL NOR2x1 112 400 R0
SYMATTR InstName X45
SYMBOL XNOR2x1 1616 1648 R0
SYMATTR InstName X46
SYMBOL XNOR2x1 1616 1328 R0
SYMATTR InstName X47
SYMBOL XNOR2x1 1616 1008 R0
SYMATTR InstName X48
SYMBOL XNOR2x1 1616 688 R0
SYMATTR InstName X49
SYMBOL PG 688 288 R0
SYMATTR InstName X1
SYMBOL PG 688 464 R0
SYMATTR InstName X2
SYMBOL PG 960 288 R0
SYMATTR InstName X3
SYMBOL PG 960 464 R0
SYMATTR InstName X4
SYMBOL PG 1200 384 R0
SYMATTR InstName X14
SYMBOL INVx1 1856 400 R0
SYMATTR InstName X15
SYMBOL XNOR2x1 1616 400 R0
SYMATTR InstName X16
SYMBOL INVx1 624 1344 R0
SYMATTR InstName X17
SYMBOL NAND2x1 400 1344 R0
SYMATTR InstName X18
SYMBOL NANDs\\3-NAND -208 992 R0
SYMATTR InstName X24
SYMBOL NANDs\\3-NAND -496 1488 R0
SYMATTR InstName X25
SYMBOL NANDs\\3-NAND 464 944 R0
SYMATTR InstName X26
SYMBOL NANDs\\3-NAND 352 1584 R0
SYMATTR InstName X27
SYMBOL NANDs\\4-NAND -272 1568 R0
SYMATTR InstName X28
SYMBOL NANDs\\4-NAND 688 1008 R0
SYMATTR InstName X29
SYMBOL NANDs\\4-NAND 576 1648 R0
SYMATTR InstName X30
SYMBOL NANDs\\5-NAND 912 1040 R0
SYMATTR InstName X31
SYMBOL NANDs\\5-NAND 800 1680 R0
SYMATTR InstName X50
SYMBOL NANDs\\6-NAND 1024 1728 R0
SYMATTR InstName X51
SYMBOL NORs\\3-NOR 112 896 R0
SYMATTR InstName X52
SYMBOL NORs\\4-NOR 16 1440 R0
SYMATTR InstName X53
SYMBOL NORs\\5-NOR 1136 880 R0
SYMATTR InstName X54
SYMBOL NORs\\6-NOR 1232 1536 R0
SYMATTR InstName X55
TEXT -632 584 Left 2 ;Co_1
TEXT -632 1144 Left 2 ;Co_2
TEXT 328 584 Left 2 ;Co_3
TEXT -632 240 Left 2 ;Co_0
TEXT 216 1224 Left 2 ;Co_4
RECTANGLE Normal -656 560 272 1104
RECTANGLE Normal -656 224 560 544
RECTANGLE Normal 176 1696 -656 1120
RECTANGLE Normal 1312 1184 304 560
RECTANGLE Normal 1408 1888 192 1200
