Version 4.1
SHEET 1 892 680
WIRE 192 -176 192 -192
WIRE 400 -160 400 -176
WIRE 0 -144 -112 -144
WIRE 96 -144 0 -144
WIRE 320 -112 272 -112
WIRE 528 -112 480 -112
WIRE -64 -80 -112 -80
WIRE 96 -80 -64 -80
WIRE 400 -48 400 -64
WIRE 192 -32 192 -48
WIRE 176 144 176 128
WIRE 400 160 400 144
WIRE 0 176 0 -144
WIRE 80 176 0 176
WIRE 320 208 272 208
WIRE 528 208 480 208
WIRE -64 240 -64 -80
WIRE 80 240 -64 240
WIRE 400 272 400 256
WIRE 176 288 176 272
FLAG 192 -32 Vee
IOPIN 192 -32 In
FLAG 176 288 Vee
IOPIN 176 288 In
FLAG 176 128 Vdd
IOPIN 176 128 In
FLAG 192 -192 Vdd
IOPIN 192 -192 In
FLAG 400 -176 Vdd
IOPIN 400 -176 In
FLAG 400 -48 Vee
IOPIN 400 -48 In
FLAG 400 144 Vdd
IOPIN 400 144 In
FLAG 400 272 Vee
IOPIN 400 272 In
FLAG 528 208 G
IOPIN 528 208 Out
FLAG 528 -112 P
IOPIN 528 -112 Out
FLAG -112 -144 A
IOPIN -112 -144 In
FLAG -112 -80 B
IOPIN -112 -80 In
SYMBOL XNOR2x1 160 -112 R0
SYMATTR InstName X5
SYMBOL NAND2x1 176 208 R0
SYMATTR InstName X6
SYMBOL INVx1 400 208 R0
SYMATTR InstName X7
SYMBOL INVx1 400 -112 R0
SYMATTR InstName X8
