Version 4.1
SHEET 1 2808 2456
WIRE 224 352 224 336
WIRE 784 352 784 336
WIRE 1344 352 1344 336
WIRE 1888 352 1888 336
WIRE -80 368 -112 368
WIRE 480 368 448 368
WIRE 1040 368 1008 368
WIRE 1584 368 1552 368
WIRE 144 400 96 400
WIRE 336 400 304 400
WIRE 704 400 656 400
WIRE 896 400 864 400
WIRE 1264 400 1216 400
WIRE 1456 400 1424 400
WIRE 1808 400 1760 400
WIRE 2000 400 1968 400
WIRE -80 432 -112 432
WIRE 480 432 448 432
WIRE 1040 432 1008 432
WIRE 1584 432 1552 432
WIRE -512 464 -576 464
WIRE 224 480 224 448
WIRE 784 480 784 448
WIRE 1344 480 1344 448
WIRE 1888 480 1888 448
WIRE -208 656 -208 640
WIRE 784 656 784 640
WIRE -528 672 -576 672
WIRE 128 672 128 656
WIRE 464 672 416 672
WIRE -288 704 -336 704
WIRE -64 704 -128 704
WIRE 704 704 656 704
WIRE 896 704 864 704
WIRE 48 720 32 720
WIRE 256 720 208 720
WIRE -528 736 -576 736
WIRE 464 736 416 736
WIRE -208 768 -208 752
WIRE 784 768 784 752
WIRE 128 784 128 768
WIRE 896 816 896 704
WIRE 992 816 896 816
WIRE 1184 816 1184 800
WIRE 992 848 544 848
WIRE 1104 864 1088 864
WIRE 1296 864 1264 864
WIRE 992 880 752 880
WIRE 544 912 544 848
WIRE 544 912 528 912
WIRE 1184 928 1184 912
WIRE 752 992 752 880
WIRE 752 992 736 992
WIRE -224 1008 -224 992
WIRE -544 1024 -592 1024
WIRE -304 1056 -352 1056
WIRE -128 1056 -144 1056
WIRE -544 1088 -592 1088
WIRE -224 1120 -224 1104
WIRE 144 1168 144 1152
WIRE -128 1184 -128 1056
WIRE -48 1184 -128 1184
WIRE -48 1216 -416 1216
WIRE 64 1216 48 1216
WIRE 256 1216 224 1216
WIRE 784 1232 784 1216
WIRE 464 1248 416 1248
WIRE -416 1280 -416 1216
WIRE -416 1280 -448 1280
WIRE 144 1280 144 1264
WIRE 704 1280 656 1280
WIRE 976 1280 864 1280
WIRE 464 1312 416 1312
WIRE 784 1344 784 1328
WIRE 976 1392 976 1280
WIRE 1056 1392 976 1392
WIRE 1248 1408 1248 1392
WIRE 1056 1424 576 1424
WIRE 1056 1456 768 1456
WIRE 1168 1456 1152 1456
WIRE 1360 1456 1328 1456
WIRE 1056 1488 960 1488
WIRE 576 1520 576 1424
WIRE 576 1520 560 1520
WIRE 1248 1520 1248 1504
WIRE 768 1584 768 1456
WIRE 768 1584 752 1584
WIRE 960 1616 960 1488
WIRE 960 1616 944 1616
FLAG -624 1520 A_0
IOPIN -624 1520 In
FLAG -624 1552 B_0
IOPIN -624 1552 In
FLAG -624 1584 Vee
IOPIN -624 1584 In
FLAG -624 1488 Vdd
IOPIN -624 1488 In
FLAG -528 1520 G_0
FLAG -528 1552 P_0
FLAG -416 1520 A_1
IOPIN -416 1520 In
FLAG -416 1552 B_1
IOPIN -416 1552 In
FLAG -416 1584 Vee
IOPIN -416 1584 In
FLAG -416 1488 Vdd
IOPIN -416 1488 In
FLAG -320 1520 G_1
FLAG -320 1552 P_1
FLAG -208 1520 A_2
IOPIN -208 1520 In
FLAG -208 1552 B_2
IOPIN -208 1552 In
FLAG -208 1584 Vee
IOPIN -208 1584 In
FLAG -208 1488 Vdd
IOPIN -208 1488 In
FLAG -112 1520 G_2
FLAG -112 1552 P_2
FLAG 0 1520 A_3
IOPIN 0 1520 In
FLAG 0 1552 B_3
IOPIN 0 1552 In
FLAG 0 1584 Vee
IOPIN 0 1584 In
FLAG 0 1488 Vdd
IOPIN 0 1488 In
FLAG 96 1520 G_3
FLAG 96 1552 P_3
FLAG -576 464 G_0
FLAG -512 464 Co_0
FLAG -208 640 Vdd
IOPIN -208 640 In
FLAG -208 768 Vee
IOPIN -208 768 In
FLAG -432 640 Vdd
IOPIN -432 640 In
FLAG -432 768 Vee
IOPIN -432 768 In
FLAG -576 672 P_1
FLAG -64 768 Vee
IOPIN -64 768 In
FLAG -64 672 Vdd
IOPIN -64 672 In
FLAG -64 736 G_1
FLAG 256 720 Co_1
FLAG 992 784 Vdd
IOPIN 992 784 In
FLAG 992 944 Vee
IOPIN 992 944 In
FLAG 1296 864 Co_3
FLAG -224 992 Vdd
IOPIN -224 992 In
FLAG -224 1120 Vee
IOPIN -224 1120 In
FLAG -448 992 Vdd
IOPIN -448 992 In
FLAG -448 1120 Vee
IOPIN -448 1120 In
FLAG -592 1024 P_2
FLAG -544 1216 Vdd
IOPIN -544 1216 In
FLAG -544 1344 Vee
IOPIN -544 1344 In
FLAG -544 1248 P_1
FLAG -544 1280 P_2
FLAG -48 1280 Vee
IOPIN -48 1280 In
FLAG -48 1152 Vdd
IOPIN -48 1152 In
FLAG -48 1248 G_2
FLAG -576 736 G_0
FLAG -592 1088 G_1
FLAG -544 1312 G_0
FLAG 992 912 G_3
FLAG 640 912 Vdd
IOPIN 640 912 In
FLAG 640 1072 Vee
IOPIN 640 1072 In
FLAG 784 640 Vdd
IOPIN 784 640 In
FLAG 784 768 Vee
IOPIN 784 768 In
FLAG 560 640 Vdd
IOPIN 560 640 In
FLAG 560 768 Vee
IOPIN 560 768 In
FLAG 416 672 P_3
FLAG 432 848 Vdd
IOPIN 432 848 In
FLAG 432 976 Vee
IOPIN 432 976 In
FLAG 432 880 P_2
FLAG 432 912 P_3
FLAG 416 736 G_2
FLAG 432 944 G_1
FLAG 640 944 P_1
FLAG 640 976 P_2
FLAG 640 1040 G_0
FLAG 640 1008 P_3
FLAG 1344 336 Vdd
IOPIN 1344 336 In
FLAG 1344 480 Vee
IOPIN 1344 480 In
FLAG 1136 464 Vee
IOPIN 1136 464 In
FLAG 1136 336 Vdd
IOPIN 1136 336 In
FLAG 1008 368 P_3
FLAG 1008 432 Co_2
FLAG 784 336 Vdd
IOPIN 784 336 In
FLAG 784 480 Vee
IOPIN 784 480 In
FLAG 576 464 Vee
IOPIN 576 464 In
FLAG 576 336 Vdd
IOPIN 576 336 In
FLAG 448 368 P_2
FLAG 448 432 Co_1
FLAG 1456 400 S3
IOPIN 1456 400 Out
FLAG 896 400 S2
IOPIN 896 400 Out
FLAG 224 336 Vdd
IOPIN 224 336 In
FLAG 224 480 Vee
IOPIN 224 480 In
FLAG 16 464 Vee
IOPIN 16 464 In
FLAG 16 336 Vdd
IOPIN 16 336 In
FLAG -112 368 P_1
FLAG -112 432 Co_0
FLAG 336 400 S1
IOPIN 336 400 Out
FLAG 208 1520 A_4
IOPIN 208 1520 In
FLAG 208 1552 B_4
IOPIN 208 1552 In
FLAG 208 1584 Vee
IOPIN 208 1584 In
FLAG 208 1488 Vdd
IOPIN 208 1488 In
FLAG 304 1520 G_4
FLAG 304 1552 P_4
FLAG 1888 336 Vdd
IOPIN 1888 336 In
FLAG 1888 480 Vee
IOPIN 1888 480 In
FLAG 1680 464 Vee
IOPIN 1680 464 In
FLAG 1680 336 Vdd
IOPIN 1680 336 In
FLAG 1552 368 P_4
FLAG 1552 432 Co_3
FLAG 2000 400 S4
IOPIN 2000 400 Out
FLAG 1056 1360 Vdd
IOPIN 1056 1360 In
FLAG 1056 1552 Vee
IOPIN 1056 1552 In
FLAG 1360 1456 Co_4
IOPIN 1360 1456 Out
FLAG 1056 1520 G_4
FLAG 656 1504 Vdd
IOPIN 656 1504 In
FLAG 656 1664 Vee
IOPIN 656 1664 In
FLAG 784 1216 Vdd
IOPIN 784 1216 In
FLAG 784 1344 Vee
IOPIN 784 1344 In
FLAG 560 1216 Vdd
IOPIN 560 1216 In
FLAG 560 1344 Vee
IOPIN 560 1344 In
FLAG 416 1248 P_4
FLAG 464 1456 Vdd
IOPIN 464 1456 In
FLAG 464 1584 Vee
IOPIN 464 1584 In
FLAG 464 1488 P_3
FLAG 464 1520 P_4
FLAG 416 1312 G_3
FLAG 464 1552 G_2
FLAG 656 1536 P_2
FLAG 656 1568 P_3
FLAG 848 1520 Vdd
IOPIN 848 1520 In
FLAG 848 1712 Vee
IOPIN 848 1712 In
FLAG 848 1584 P_2
FLAG 848 1616 P_3
FLAG 848 1680 G_0
FLAG 848 1552 P_1
FLAG 848 1648 P_4
FLAG 656 1632 G_1
FLAG 656 1600 P_4
FLAG 128 656 Vdd
IOPIN 128 656 In
FLAG 128 784 Vee
IOPIN 128 784 In
FLAG 1184 800 Vdd
IOPIN 1184 800 In
FLAG 1184 928 Vee
IOPIN 1184 928 In
FLAG 1248 1392 Vdd
IOPIN 1248 1392 In
FLAG 1248 1520 Vee
IOPIN 1248 1520 In
FLAG 144 1152 Vdd
IOPIN 144 1152 In
FLAG 144 1280 Vee
IOPIN 144 1280 In
FLAG 256 1216 Co_2
FLAG -320 416 P_0
FLAG -240 416 S0
IOPIN -240 416 Out
SYMBOL INVx1 -224 1056 R0
SYMATTR InstName X34
SYMBOL INVx1 784 704 R0
SYMATTR InstName X35
SYMBOL INVx1 -208 704 R0
SYMATTR InstName X36
SYMBOL INVx1 784 400 R0
SYMATTR InstName X37
SYMBOL INVx1 1344 400 R0
SYMATTR InstName X38
SYMBOL INVx1 224 400 R0
SYMATTR InstName X39
SYMBOL NAND2x1 -448 1056 R0
SYMATTR InstName X42
SYMBOL NAND2x1 560 704 R0
SYMATTR InstName X43
SYMBOL NAND2x1 -432 704 R0
SYMATTR InstName X44
SYMBOL XNOR2x1 -16 400 R0
SYMATTR InstName X47
SYMBOL XNOR2x1 544 400 R0
SYMATTR InstName X48
SYMBOL XNOR2x1 1104 400 R0
SYMATTR InstName X49
SYMBOL PG -576 1536 R0
SYMATTR InstName X1
SYMBOL PG -368 1536 R0
SYMATTR InstName X2
SYMBOL PG -160 1536 R0
SYMATTR InstName X3
SYMBOL PG 48 1536 R0
SYMATTR InstName X4
SYMBOL PG 256 1536 R0
SYMATTR InstName X14
SYMBOL INVx1 1888 400 R0
SYMATTR InstName X15
SYMBOL XNOR2x1 1648 400 R0
SYMATTR InstName X16
SYMBOL INVx1 784 1280 R0
SYMATTR InstName X17
SYMBOL NAND2x1 560 1280 R0
SYMATTR InstName X18
SYMBOL NANDs\\3-NAND -496 1280 R0
SYMATTR InstName X25
SYMBOL NANDs\\3-NAND 480 912 R0
SYMATTR InstName X26
SYMBOL NANDs\\3-NAND 512 1520 R0
SYMATTR InstName X27
SYMBOL NANDs\\4-NAND 688 992 R0
SYMATTR InstName X29
SYMBOL NANDs\\4-NAND 704 1584 R0
SYMATTR InstName X30
SYMBOL NANDs\\5-NAND 896 1616 R0
SYMATTR InstName X50
SYMBOL NORs\\pseudoNMOS\\pseudoNOR-2 -16 720 R0
SYMATTR InstName X5
SYMBOL NORs\\pseudoNMOS\\pseudoNOR-4 1040 864 R0
SYMATTR InstName X7
SYMBOL NORs\\pseudoNMOS\\pseudoNOR-5 1104 1456 R0
SYMATTR InstName X8
SYMBOL INVx1 128 720 R0
SYMATTR InstName X10
SYMBOL INVx1 1184 864 R0
SYMATTR InstName X11
SYMBOL INVx1 1248 1456 R0
SYMATTR InstName X12
SYMBOL INVx1 144 1216 R0
SYMATTR InstName X13
SYMBOL NORs\\pseudoNMOS\\pseudoNOR-3 0 1216 R0
SYMATTR InstName X6
SYMBOL voltage -224 416 R90
WINDOW 0 -32 56 VBottom 2
WINDOW 3 32 56 VTop 2
WINDOW 123 0 0 Left 0
WINDOW 39 0 0 Left 0
SYMATTR InstName V1
SYMATTR Value 0
TEXT -632 584 Left 2 ;Co_1
TEXT -632 936 Left 2 ;Co_2
TEXT 376 584 Left 2 ;Co_3
TEXT -632 400 Left 2 ;Co_0
TEXT 376 1160 Left 2 ;Co_4
RECTANGLE Normal -656 560 336 896
RECTANGLE Normal -656 384 -416 528
RECTANGLE Normal 336 1392 -656 912
RECTANGLE Normal 1360 1120 352 560
RECTANGLE Normal 1456 1760 352 1136
