Version 4.1
SHEET 1 2360 1588
WIRE 1808 208 1808 192
WIRE 1504 224 1472 224
WIRE 1728 256 1680 256
WIRE 1920 256 1888 256
WIRE 1504 288 1472 288
WIRE 1808 336 1808 304
WIRE -256 480 -256 464
WIRE 768 480 768 464
WIRE -576 496 -624 496
WIRE 112 496 112 480
WIRE 448 496 400 496
WIRE -336 528 -384 528
WIRE -112 528 -176 528
WIRE 688 528 640 528
WIRE 880 528 848 528
WIRE 1808 528 1808 512
WIRE 32 544 -16 544
WIRE 224 544 192 544
WIRE 1504 544 1472 544
WIRE -576 560 -624 560
WIRE -112 560 -160 560
WIRE 448 560 400 560
WIRE 1728 576 1680 576
WIRE 1920 576 1888 576
WIRE -256 592 -256 576
WIRE 768 592 768 576
WIRE 112 608 112 592
WIRE 1504 608 1472 608
WIRE 880 640 880 528
WIRE 960 640 880 640
WIRE 1168 640 1168 624
WIRE 1808 656 1808 624
WIRE 960 672 576 672
WIRE 1088 688 1056 688
WIRE 1280 688 1248 688
WIRE 960 704 816 704
WIRE 1168 752 1168 736
WIRE 576 768 576 672
WIRE 576 768 544 768
WIRE -256 816 -256 800
WIRE -576 832 -624 832
WIRE 816 832 816 704
WIRE 816 832 768 832
WIRE 1808 848 1808 832
WIRE -336 864 -384 864
WIRE -144 864 -176 864
WIRE 1504 864 1472 864
WIRE -576 896 -624 896
WIRE 1728 896 1680 896
WIRE 1920 896 1888 896
WIRE -256 928 -256 912
WIRE 1504 928 1472 928
WIRE 144 960 144 944
WIRE -144 976 -144 864
WIRE -64 976 -144 976
WIRE 1808 976 1808 944
WIRE -64 1008 -144 1008
WIRE 64 1008 32 1008
WIRE 256 1008 224 1008
WIRE 144 1072 144 1056
WIRE -144 1088 -144 1008
WIRE -144 1088 -304 1088
FLAG -224 256 A_0
IOPIN -224 256 In
FLAG -224 288 B_0
IOPIN -224 288 In
FLAG -224 320 Vee
IOPIN -224 320 In
FLAG -224 224 Vdd
IOPIN -224 224 In
FLAG -128 256 G_0
FLAG -128 288 P_0
FLAG 32 256 A_1
IOPIN 32 256 In
FLAG 32 288 B_1
IOPIN 32 288 In
FLAG 32 320 Vee
IOPIN 32 320 In
FLAG 32 224 Vdd
IOPIN 32 224 In
FLAG 128 256 G_1
FLAG 128 288 P_1
FLAG 288 256 A_2
IOPIN 288 256 In
FLAG 288 288 B_2
IOPIN 288 288 In
FLAG 288 320 Vee
IOPIN 288 320 In
FLAG 288 224 Vdd
IOPIN 288 224 In
FLAG 384 256 G_2
FLAG 384 288 P_2
FLAG 544 256 A_3
IOPIN 544 256 In
FLAG 544 288 B_3
IOPIN 544 288 In
FLAG 544 320 Vee
IOPIN 544 320 In
FLAG 544 224 Vdd
IOPIN 544 224 In
FLAG 640 256 G_3
FLAG 640 288 P_3
FLAG 112 480 Vdd
IOPIN 112 480 In
FLAG 112 608 Vee
IOPIN 112 608 In
FLAG -112 496 Vdd
IOPIN -112 496 In
FLAG -112 592 Vee
IOPIN -112 592 In
FLAG -480 288 Co_0
FLAG -256 464 Vdd
IOPIN -256 464 In
FLAG -256 592 Vee
IOPIN -256 592 In
FLAG -480 464 Vdd
IOPIN -480 464 In
FLAG -480 592 Vee
IOPIN -480 592 In
FLAG -624 496 P_1
FLAG -160 560 G_1
FLAG 224 544 Co_1
FLAG 256 1008 Co_2
FLAG 960 608 Vdd
IOPIN 960 608 In
FLAG 960 768 Vee
IOPIN 960 768 In
FLAG 1280 688 Co_3
IOPIN 1280 688 Out
FLAG -256 800 Vdd
IOPIN -256 800 In
FLAG -256 928 Vee
IOPIN -256 928 In
FLAG -480 800 Vdd
IOPIN -480 800 In
FLAG -480 928 Vee
IOPIN -480 928 In
FLAG -624 832 P_2
FLAG -400 1024 Vdd
IOPIN -400 1024 In
FLAG -400 1152 Vee
IOPIN -400 1152 In
FLAG -400 1056 P_1
FLAG -400 1088 P_2
FLAG -64 1072 Vee
IOPIN -64 1072 In
FLAG -64 944 Vdd
IOPIN -64 944 In
FLAG -64 1040 G_2
FLAG -624 560 G_0
FLAG -624 896 G_1
FLAG -400 1120 G_0
FLAG 960 736 G_3
FLAG 672 752 Vdd
IOPIN 672 752 In
FLAG 672 912 Vee
IOPIN 672 912 In
FLAG 768 464 Vdd
IOPIN 768 464 In
FLAG 768 592 Vee
IOPIN 768 592 In
FLAG 544 464 Vdd
IOPIN 544 464 In
FLAG 544 592 Vee
IOPIN 544 592 In
FLAG 400 496 P_3
FLAG 448 704 Vdd
IOPIN 448 704 In
FLAG 448 832 Vee
IOPIN 448 832 In
FLAG 448 736 P_2
FLAG 448 768 P_3
FLAG 400 560 G_2
FLAG 448 800 G_1
FLAG 672 784 P_1
FLAG 672 816 P_2
FLAG 672 880 G_0
FLAG 672 848 P_3
FLAG 1808 192 Vdd
IOPIN 1808 192 In
FLAG 1808 336 Vee
IOPIN 1808 336 In
FLAG 1600 320 Vee
IOPIN 1600 320 In
FLAG 1600 192 Vdd
IOPIN 1600 192 In
FLAG 1472 224 P_3
FLAG 1472 288 Co_2
FLAG 1808 512 Vdd
IOPIN 1808 512 In
FLAG 1808 656 Vee
IOPIN 1808 656 In
FLAG 1600 640 Vee
IOPIN 1600 640 In
FLAG 1600 512 Vdd
IOPIN 1600 512 In
FLAG 1472 544 P_2
FLAG 1472 608 Co_1
FLAG 1920 256 S3
IOPIN 1920 256 Out
FLAG 1920 576 S2
IOPIN 1920 576 Out
FLAG 1808 832 Vdd
IOPIN 1808 832 In
FLAG 1808 976 Vee
IOPIN 1808 976 In
FLAG 1600 960 Vee
IOPIN 1600 960 In
FLAG 1600 832 Vdd
IOPIN 1600 832 In
FLAG 1472 864 P_1
FLAG 1472 928 Co_0
FLAG 1920 896 S1
IOPIN 1920 896 Out
FLAG 144 944 Vdd
IOPIN 144 944 In
FLAG 144 1072 Vee
IOPIN 144 1072 In
FLAG 1168 624 Vdd
IOPIN 1168 624 In
FLAG 1168 752 Vee
IOPIN 1168 752 In
FLAG -560 288 G_0
FLAG 1632 1120 P_0
FLAG 1712 1120 S0
IOPIN 1712 1120 Out
SYMBOL XNOR2x1 1568 896 R0
SYMATTR InstName X47
SYMBOL XNOR2x1 1568 576 R0
SYMATTR InstName X48
SYMBOL XNOR2x1 1568 256 R0
SYMATTR InstName X49
SYMBOL PG -176 272 R0
SYMATTR InstName X1
SYMBOL PG 80 272 R0
SYMATTR InstName X2
SYMBOL PG 336 272 R0
SYMATTR InstName X3
SYMBOL PG 592 272 R0
SYMATTR InstName X4
SYMBOL voltage -464 288 R90
WINDOW 0 44 6 VRight 2
WINDOW 3 43 51 VRight 2
WINDOW 123 0 0 Left 0
WINDOW 39 0 0 Left 0
SYMATTR InstName V1
SYMATTR Value 0
SYMBOL NAND2x1 -480 528 R0
SYMATTR InstName X13
SYMBOL NAND2x1 -480 864 R0
SYMATTR InstName X14
SYMBOL NAND2x1 544 528 R0
SYMATTR InstName X15
SYMBOL INVx1 -256 528 R0
SYMATTR InstName X16
SYMBOL INVx1 112 544 R0
SYMATTR InstName X10
SYMBOL INVx1 -256 864 R0
SYMATTR InstName X12
SYMBOL INVx1 144 1008 R0
SYMATTR InstName X17
SYMBOL INVx1 768 528 R0
SYMATTR InstName X18
SYMBOL INVx1 1168 688 R0
SYMATTR InstName X19
SYMBOL INVx1 1808 256 R0
SYMATTR InstName X20
SYMBOL INVx1 1808 576 R0
SYMATTR InstName X21
SYMBOL INVx1 1808 896 R0
SYMATTR InstName X22
SYMBOL NORs\\pseudoNMOS\\pseudoNOR-2 -64 544 R0
SYMATTR InstName X6
SYMBOL NORs\\pseudoNMOS\\pseudoNOR-3 -16 1008 R0
SYMATTR InstName X7
SYMBOL NORs\\pseudoNMOS\\pseudoNOR-4 1008 688 R0
SYMATTR InstName X9
SYMBOL NANDs\\3-NAND -352 1088 R0
SYMATTR InstName X5
SYMBOL NANDs\\4-NAND 720 832 R0
SYMATTR InstName X8
SYMBOL NANDs\\3-NAND 496 768 R0
SYMATTR InstName X11
SYMBOL voltage 1728 1120 R90
WINDOW 0 -32 56 VBottom 2
WINDOW 3 32 56 VTop 2
WINDOW 123 0 0 Left 0
WINDOW 39 0 0 Left 0
SYMATTR InstName V2
SYMATTR Value 0
TEXT -664 408 Left 2 ;Co_1
TEXT -664 744 Left 2 ;Co_2
TEXT 360 408 Left 2 ;Co_3
TEXT -664 240 Left 2 ;Co_0
RECTANGLE Normal -688 384 320 704
RECTANGLE Normal -688 224 -384 352
RECTANGLE Normal 320 1216 -688 720
RECTANGLE Normal 1376 960 336 384
