Version 4.1
SHEET 1 2808 2456
WIRE 816 288 816 272
WIRE 1376 288 1376 272
WIRE 1920 288 1920 272
WIRE 512 304 480 304
WIRE 1072 304 1040 304
WIRE 1616 304 1584 304
WIRE -208 320 -208 304
WIRE -528 336 -576 336
WIRE 176 336 176 320
WIRE 736 336 688 336
WIRE 928 336 896 336
WIRE 1296 336 1248 336
WIRE 1488 336 1456 336
WIRE 1840 336 1792 336
WIRE 2032 336 2000 336
WIRE -288 368 -336 368
WIRE -48 368 -128 368
WIRE 512 368 480 368
WIRE 1072 368 1040 368
WIRE 1616 368 1584 368
WIRE 96 384 48 384
WIRE 304 384 256 384
WIRE -528 400 -576 400
WIRE -48 400 -64 400
WIRE 816 416 816 384
WIRE 1376 416 1376 384
WIRE 1920 416 1920 384
WIRE -208 432 -208 416
WIRE 176 448 176 432
WIRE 1920 592 1920 576
WIRE 1616 608 1584 608
WIRE 1840 640 1792 640
WIRE 2032 640 2000 640
WIRE -208 656 -208 640
WIRE 816 656 816 640
WIRE -528 672 -576 672
WIRE 496 672 448 672
WIRE 1616 672 1584 672
WIRE -288 704 -336 704
WIRE -112 704 -128 704
WIRE 736 704 688 704
WIRE 960 704 896 704
WIRE 1920 720 1920 688
WIRE -528 736 -576 736
WIRE 496 736 448 736
WIRE -208 768 -208 752
WIRE 816 768 816 752
WIRE 960 816 960 704
WIRE 1056 816 960 816
WIRE 1248 832 1248 816
WIRE 160 848 160 832
WIRE 1056 848 592 848
WIRE -112 864 -112 704
WIRE -32 864 -112 864
WIRE 1056 880 784 880
WIRE 1168 880 1152 880
WIRE 1360 880 1328 880
WIRE -32 896 -112 896
WIRE 80 896 64 896
WIRE 288 896 240 896
WIRE 1920 896 1920 880
WIRE 1056 912 976 912
WIRE 1616 912 1584 912
WIRE 592 944 592 848
WIRE 592 944 576 944
WIRE 1248 944 1248 928
WIRE 1840 944 1792 944
WIRE 2032 944 2000 944
WIRE 160 960 160 944
WIRE 1616 976 1584 976
WIRE -112 992 -112 896
WIRE -112 992 -160 992
WIRE 784 1008 784 880
WIRE 784 1008 768 1008
WIRE 1920 1024 1920 992
WIRE 976 1040 976 912
WIRE 976 1040 960 1040
WIRE -224 1216 -224 1200
WIRE -544 1232 -592 1232
WIRE -304 1264 -352 1264
WIRE -128 1264 -144 1264
WIRE -544 1296 -592 1296
WIRE 800 1296 800 1280
WIRE 480 1312 432 1312
WIRE -224 1328 -224 1312
WIRE 720 1344 672 1344
WIRE 992 1344 880 1344
WIRE 480 1376 432 1376
WIRE -128 1392 -128 1264
WIRE -48 1392 -128 1392
WIRE 144 1392 144 1376
WIRE 800 1408 800 1392
WIRE -48 1424 -416 1424
WIRE 64 1440 48 1440
WIRE 272 1440 224 1440
WIRE -48 1456 -144 1456
WIRE 992 1456 992 1344
WIRE 1248 1456 992 1456
WIRE -416 1488 -416 1424
WIRE -416 1488 -448 1488
WIRE 1248 1488 592 1488
WIRE 1440 1488 1440 1472
WIRE 144 1504 144 1488
WIRE 1248 1520 784 1520
WIRE 1360 1536 1344 1536
WIRE 1552 1536 1520 1536
WIRE 1248 1552 976 1552
WIRE -144 1568 -144 1456
WIRE -144 1568 -224 1568
WIRE 592 1584 592 1488
WIRE 592 1584 576 1584
WIRE 1248 1584 1168 1584
WIRE 1440 1600 1440 1584
WIRE 784 1648 784 1520
WIRE 784 1648 768 1648
WIRE 976 1680 976 1552
WIRE 976 1680 960 1680
WIRE 1168 1728 1168 1584
WIRE 1168 1728 1152 1728
FLAG -608 1808 A_0
IOPIN -608 1808 In
FLAG -608 1840 B_0
IOPIN -608 1840 In
FLAG -608 1872 Vee
IOPIN -608 1872 In
FLAG -608 1776 Vdd
IOPIN -608 1776 In
FLAG -512 1808 G_0
FLAG -512 1840 P_0
FLAG -400 1808 A_1
IOPIN -400 1808 In
FLAG -400 1840 B_1
IOPIN -400 1840 In
FLAG -400 1872 Vee
IOPIN -400 1872 In
FLAG -400 1776 Vdd
IOPIN -400 1776 In
FLAG -304 1808 G_1
FLAG -304 1840 P_1
FLAG -192 1808 A_2
IOPIN -192 1808 In
FLAG -192 1840 B_2
IOPIN -192 1840 In
FLAG -192 1872 Vee
IOPIN -192 1872 In
FLAG -192 1776 Vdd
IOPIN -192 1776 In
FLAG -96 1808 G_2
FLAG -96 1840 P_2
FLAG 16 1808 A_3
IOPIN 16 1808 In
FLAG 16 1840 B_3
IOPIN 16 1840 In
FLAG 16 1872 Vee
IOPIN 16 1872 In
FLAG 16 1776 Vdd
IOPIN 16 1776 In
FLAG 112 1808 G_3
FLAG 112 1840 P_3
FLAG 176 320 Vdd
IOPIN 176 320 In
FLAG 176 448 Vee
IOPIN 176 448 In
FLAG -48 336 Vdd
IOPIN -48 336 In
FLAG -48 432 Vee
IOPIN -48 432 In
FLAG -208 304 Vdd
IOPIN -208 304 In
FLAG -208 432 Vee
IOPIN -208 432 In
FLAG -432 304 Vdd
IOPIN -432 304 In
FLAG -432 432 Vee
IOPIN -432 432 In
FLAG -64 400 G_0
FLAG 304 384 Co_0
FLAG -576 336 P_0
FLAG -576 400 Cin
IOPIN -576 400 In
FLAG -208 640 Vdd
IOPIN -208 640 In
FLAG -208 768 Vee
IOPIN -208 768 In
FLAG -432 640 Vdd
IOPIN -432 640 In
FLAG -432 768 Vee
IOPIN -432 768 In
FLAG -576 672 P_1
FLAG -256 928 Vdd
IOPIN -256 928 In
FLAG -256 1056 Vee
IOPIN -256 1056 In
FLAG -256 960 P_0
FLAG -256 992 P_1
FLAG -256 1024 Cin
IOPIN -256 1024 In
FLAG -32 960 Vee
IOPIN -32 960 In
FLAG -32 832 Vdd
IOPIN -32 832 In
FLAG -32 928 G_1
FLAG 288 896 Co_1
FLAG 1056 784 Vdd
IOPIN 1056 784 In
FLAG 1056 976 Vee
IOPIN 1056 976 In
FLAG 1360 880 Co_3
FLAG -320 1488 Vdd
IOPIN -320 1488 In
FLAG -320 1648 Vee
IOPIN -320 1648 In
FLAG -224 1200 Vdd
IOPIN -224 1200 In
FLAG -224 1328 Vee
IOPIN -224 1328 In
FLAG -448 1200 Vdd
IOPIN -448 1200 In
FLAG -448 1328 Vee
IOPIN -448 1328 In
FLAG -592 1232 P_2
FLAG -544 1424 Vdd
IOPIN -544 1424 In
FLAG -544 1552 Vee
IOPIN -544 1552 In
FLAG -544 1456 P_1
FLAG -544 1488 P_2
FLAG -48 1520 Vee
IOPIN -48 1520 In
FLAG -48 1360 Vdd
IOPIN -48 1360 In
FLAG -48 1488 G_2
FLAG -576 736 G_0
FLAG -592 1296 G_1
FLAG -544 1520 G_0
FLAG -320 1552 P_1
FLAG -320 1584 P_2
FLAG -320 1616 Cin
IOPIN -320 1616 In
FLAG -320 1520 P_0
FLAG 1056 944 G_3
FLAG 672 928 Vdd
IOPIN 672 928 In
FLAG 672 1088 Vee
IOPIN 672 1088 In
FLAG 816 640 Vdd
IOPIN 816 640 In
FLAG 816 768 Vee
IOPIN 816 768 In
FLAG 592 640 Vdd
IOPIN 592 640 In
FLAG 592 768 Vee
IOPIN 592 768 In
FLAG 448 672 P_3
FLAG 480 880 Vdd
IOPIN 480 880 In
FLAG 480 1008 Vee
IOPIN 480 1008 In
FLAG 480 912 P_2
FLAG 480 944 P_3
FLAG 448 736 G_2
FLAG 480 976 G_1
FLAG 672 960 P_1
FLAG 672 992 P_2
FLAG 864 944 Vdd
IOPIN 864 944 In
FLAG 864 1136 Vee
IOPIN 864 1136 In
FLAG 864 1008 P_1
FLAG 864 1040 P_2
FLAG 864 1104 Cin
IOPIN 864 1104 In
FLAG 864 976 P_0
FLAG 864 1072 P_3
FLAG 672 1056 G_0
FLAG 672 1024 P_3
FLAG 1920 576 Vdd
IOPIN 1920 576 In
FLAG 1920 720 Vee
IOPIN 1920 720 In
FLAG 1712 704 Vee
IOPIN 1712 704 In
FLAG 1712 576 Vdd
IOPIN 1712 576 In
FLAG 1584 608 P_3
FLAG 1584 672 Co_2
FLAG 1920 272 Vdd
IOPIN 1920 272 In
FLAG 1920 416 Vee
IOPIN 1920 416 In
FLAG 1712 400 Vee
IOPIN 1712 400 In
FLAG 1712 272 Vdd
IOPIN 1712 272 In
FLAG 1584 304 P_2
FLAG 1584 368 Co_1
FLAG 2032 640 S3
IOPIN 2032 640 Out
FLAG 2032 336 S2
IOPIN 2032 336 Out
FLAG 1376 272 Vdd
IOPIN 1376 272 In
FLAG 1376 416 Vee
IOPIN 1376 416 In
FLAG 1168 400 Vee
IOPIN 1168 400 In
FLAG 1168 272 Vdd
IOPIN 1168 272 In
FLAG 1040 304 P_1
FLAG 1040 368 Co_0
FLAG 816 272 Vdd
IOPIN 816 272 In
FLAG 816 416 Vee
IOPIN 816 416 In
FLAG 608 400 Vee
IOPIN 608 400 In
FLAG 608 272 Vdd
IOPIN 608 272 In
FLAG 480 304 P_0
FLAG 480 368 Cin
IOPIN 480 368 In
FLAG 1488 336 S1
IOPIN 1488 336 Out
FLAG 928 336 S0
IOPIN 928 336 Out
FLAG 224 1808 A_4
IOPIN 224 1808 In
FLAG 224 1840 B_4
IOPIN 224 1840 In
FLAG 224 1872 Vee
IOPIN 224 1872 In
FLAG 224 1776 Vdd
IOPIN 224 1776 In
FLAG 320 1808 G_4
FLAG 320 1840 P_4
FLAG 1920 880 Vdd
IOPIN 1920 880 In
FLAG 1920 1024 Vee
IOPIN 1920 1024 In
FLAG 1712 1008 Vee
IOPIN 1712 1008 In
FLAG 1712 880 Vdd
IOPIN 1712 880 In
FLAG 1584 912 P_4
FLAG 1584 976 Co_3
FLAG 2032 944 S4
IOPIN 2032 944 Out
FLAG 1248 1424 Vdd
IOPIN 1248 1424 In
FLAG 1248 1648 Vee
IOPIN 1248 1648 In
FLAG 1552 1536 Co_4
IOPIN 1552 1536 Out
FLAG 1248 1616 G_4
FLAG 672 1568 Vdd
IOPIN 672 1568 In
FLAG 672 1728 Vee
IOPIN 672 1728 In
FLAG 800 1280 Vdd
IOPIN 800 1280 In
FLAG 800 1408 Vee
IOPIN 800 1408 In
FLAG 576 1280 Vdd
IOPIN 576 1280 In
FLAG 576 1408 Vee
IOPIN 576 1408 In
FLAG 432 1312 P_4
FLAG 480 1520 Vdd
IOPIN 480 1520 In
FLAG 480 1648 Vee
IOPIN 480 1648 In
FLAG 480 1552 P_3
FLAG 480 1584 P_4
FLAG 432 1376 G_3
FLAG 480 1616 G_2
FLAG 672 1600 P_2
FLAG 672 1632 P_3
FLAG 864 1584 Vdd
IOPIN 864 1584 In
FLAG 864 1776 Vee
IOPIN 864 1776 In
FLAG 864 1648 P_2
FLAG 864 1680 P_3
FLAG 864 1744 G_0
FLAG 864 1616 P_1
FLAG 864 1712 P_4
FLAG 672 1696 G_1
FLAG 672 1664 P_4
FLAG 1056 1616 Vdd
IOPIN 1056 1616 In
FLAG 1056 1840 Vee
IOPIN 1056 1840 In
FLAG 1056 1680 P_1
FLAG 1056 1712 P_2
FLAG 1056 1808 Cin
IOPIN 1056 1808 In
FLAG 1056 1648 P_0
FLAG 1056 1744 P_3
FLAG 1056 1776 P_4
FLAG 160 832 Vdd
IOPIN 160 832 In
FLAG 160 960 Vee
IOPIN 160 960 In
FLAG 1248 816 Vdd
IOPIN 1248 816 In
FLAG 1248 944 Vee
IOPIN 1248 944 In
FLAG 1440 1472 Vdd
IOPIN 1440 1472 In
FLAG 1440 1600 Vee
IOPIN 1440 1600 In
FLAG 144 1376 Vdd
IOPIN 144 1376 In
FLAG 144 1504 Vee
IOPIN 144 1504 In
FLAG 272 1440 Co_2
SYMBOL INVx1 -208 368 R0
SYMATTR InstName X32
SYMBOL INVx1 176 384 R0
SYMATTR InstName X33
SYMBOL INVx1 -224 1264 R0
SYMATTR InstName X34
SYMBOL INVx1 816 704 R0
SYMATTR InstName X35
SYMBOL INVx1 -208 704 R0
SYMATTR InstName X36
SYMBOL INVx1 1920 336 R0
SYMATTR InstName X37
SYMBOL INVx1 1920 640 R0
SYMATTR InstName X38
SYMBOL INVx1 1376 336 R0
SYMATTR InstName X39
SYMBOL INVx1 816 336 R0
SYMATTR InstName X40
SYMBOL NAND2x1 -432 368 R0
SYMATTR InstName X41
SYMBOL NAND2x1 -448 1264 R0
SYMATTR InstName X42
SYMBOL NAND2x1 592 704 R0
SYMATTR InstName X43
SYMBOL NAND2x1 -432 704 R0
SYMATTR InstName X44
SYMBOL XNOR2x1 576 336 R0
SYMATTR InstName X46
SYMBOL XNOR2x1 1136 336 R0
SYMATTR InstName X47
SYMBOL XNOR2x1 1680 336 R0
SYMATTR InstName X48
SYMBOL XNOR2x1 1680 640 R0
SYMATTR InstName X49
SYMBOL PG -560 1824 R0
SYMATTR InstName X1
SYMBOL PG -352 1824 R0
SYMATTR InstName X2
SYMBOL PG -144 1824 R0
SYMATTR InstName X3
SYMBOL PG 64 1824 R0
SYMATTR InstName X4
SYMBOL PG 272 1824 R0
SYMATTR InstName X14
SYMBOL INVx1 1920 944 R0
SYMATTR InstName X15
SYMBOL XNOR2x1 1680 944 R0
SYMATTR InstName X16
SYMBOL INVx1 800 1344 R0
SYMATTR InstName X17
SYMBOL NAND2x1 576 1344 R0
SYMATTR InstName X18
SYMBOL NANDs\\3-NAND -208 992 R0
SYMATTR InstName X24
SYMBOL NANDs\\3-NAND -496 1488 R0
SYMATTR InstName X25
SYMBOL NANDs\\3-NAND 528 944 R0
SYMATTR InstName X26
SYMBOL NANDs\\3-NAND 528 1584 R0
SYMATTR InstName X27
SYMBOL NANDs\\4-NAND -272 1568 R0
SYMATTR InstName X28
SYMBOL NANDs\\4-NAND 720 1008 R0
SYMATTR InstName X29
SYMBOL NANDs\\4-NAND 720 1648 R0
SYMATTR InstName X30
SYMBOL NANDs\\5-NAND 912 1040 R0
SYMATTR InstName X31
SYMBOL NANDs\\5-NAND 912 1680 R0
SYMATTR InstName X50
SYMBOL NANDs\\6-NAND 1104 1728 R0
SYMATTR InstName X51
SYMBOL NORs\\pseudoNMOS\\pseudoNOR-2 0 384 R0
SYMATTR InstName X5
SYMBOL NORs\\pseudoNMOS\\pseudoNOR-3 16 896 R0
SYMATTR InstName X6
SYMBOL NORs\\pseudoNMOS\\pseudoNOR-4 0 1440 R0
SYMATTR InstName X7
SYMBOL NORs\\pseudoNMOS\\pseudoNOR-5 1104 880 R0
SYMATTR InstName X8
SYMBOL NORs\\pseudoNMOS\\pseudoNOR-6 1296 1536 R0
SYMATTR InstName X9
SYMBOL INVx1 160 896 R0
SYMATTR InstName X10
SYMBOL INVx1 1248 880 R0
SYMATTR InstName X11
SYMBOL INVx1 1440 1536 R0
SYMATTR InstName X12
SYMBOL INVx1 144 1440 R0
SYMATTR InstName X13
TEXT -632 584 Left 2 ;Co_1
TEXT -632 1144 Left 2 ;Co_2
TEXT 408 584 Left 2 ;Co_3
TEXT -632 240 Left 2 ;Co_0
TEXT 392 1224 Left 2 ;Co_4
TEXT 1464 1160 Left 2 !.param a=0.7
RECTANGLE Normal -656 560 368 1104
RECTANGLE Normal -656 224 384 544
RECTANGLE Normal 352 1712 -656 1120
RECTANGLE Normal 1424 1184 384 560
RECTANGLE Normal 1664 1888 368 1200
