Version 4.1
SHEET 1 2084 1936
WIRE -896 192 -896 160
WIRE -896 288 -896 272
WIRE -240 320 -320 320
WIRE 80 320 16 320
WIRE -240 352 -320 352
WIRE 80 352 16 352
WIRE -896 432 -896 400
WIRE -896 528 -896 512
FLAG -896 288 0
FLAG -896 160 i_clk
FLAG -896 528 0
FLAG -896 400 i_rstb
FLAG 80 320 o_D[5:2]
FLAG -320 320 i_clk
FLAG -320 352 i_rstb
FLAG 80 352 o_D[1:0]
SYMBOL voltage -896 176 R0
SYMATTR InstName V2
SYMATTR Value PULSE(0 3.3 'td' 'tt' 'tt' 'tclk/2' 'tclk')
SYMBOL voltage -896 416 R0
SYMATTR InstName V3
SYMATTR Value PULSE(3.3 0 1n 'tt' 'tt' 5n)
SYMBOL RAMP -112 336 R0
SYMATTR InstName A1
TEXT 216 8 Left 2 !.tran 200n\n.param tclk = 10n\n.param td = 10n\n.param tt = 50p
TEXT 224 -32 Left 2 ;32*V(o_d[5])+16*V(o_d[4])+8*V(o_d[3])+4*V(o_d[2])+2*V(o_d[1])+V(o_d[0])
TEXT 224 -80 Left 2 ;8*V(o_d[5])+4*V(o_d[4])+2*V(o_d[3])+1*V(o_d[2])+1/2*V(o_d[1])+1/4*V(o_d[0])
