Version 4
SHEET 1 3696 900
WIRE -1792 -160 -1872 -160
WIRE -1712 -160 -1792 -160
WIRE -1216 -160 -1296 -160
WIRE -1136 -160 -1216 -160
WIRE -1792 -128 -1792 -160
WIRE -1216 -128 -1216 -160
WIRE 1488 64 1376 64
WIRE 1552 64 1488 64
WIRE 1648 64 1616 64
WIRE 1920 64 1808 64
WIRE 1984 64 1920 64
WIRE 2080 64 2048 64
WIRE -160 96 -272 96
WIRE -96 96 -160 96
WIRE 0 96 -32 96
WIRE 272 96 160 96
WIRE 336 96 272 96
WIRE 432 96 400 96
WIRE 1376 128 1376 64
WIRE 1488 128 1488 64
WIRE 1808 128 1808 64
WIRE 1920 128 1920 64
WIRE -272 160 -272 96
WIRE -160 160 -160 96
WIRE 160 160 160 96
WIRE 272 160 272 96
WIRE 1376 240 1376 208
WIRE 1488 240 1488 192
WIRE 1488 240 1376 240
WIRE 1808 240 1808 208
WIRE 1920 240 1920 192
WIRE 1920 240 1808 240
WIRE -272 272 -272 240
WIRE -160 272 -160 224
WIRE -160 272 -272 272
WIRE 160 272 160 240
WIRE 272 272 272 224
WIRE 272 272 160 272
WIRE 1488 288 1488 240
WIRE 1920 288 1920 240
WIRE -160 320 -160 272
WIRE 272 320 272 272
FLAG -1264 528 0
FLAG -1776 528 0
FLAG -1776 448 CK_MASTER
FLAG -1040 528 0
FLAG -1040 448 Vdd
FLAG -1792 -48 0
FLAG -1952 -160 Vip1
FLAG -1632 -160 Vim1
FLAG -1264 448 Vocm_target
FLAG 208 -144 Vocm_target
FLAG 464 -272 Vdd
FLAG 208 -192 Vip1_test
FLAG 208 -224 Vim1_test
FLAG 208 -272 CK_MASTER
FLAG 464 -192 Vop1
FLAG 464 -224 Vom1
FLAG -224 -272 Tv_num
FLAG -176 -272 Tv_den
FLAG -160 320 Vip1
FLAG 0 96 Vom1
FLAG -160 96 Vipx1
FLAG -288 -224 Vipx1
FLAG -288 -192 Vimx1
FLAG -144 -224 Vip1_test
FLAG -144 -192 Vim1_test
FLAG 272 320 Vim1
FLAG 432 96 Vop1
FLAG 272 96 Vimx1
FLAG 1856 -176 Vocm_target
FLAG 2112 -304 Vdd
FLAG 1856 -224 Vip2_test
FLAG 1856 -256 Vim2_test
FLAG 1856 -304 CK_MASTER
FLAG 2112 -224 Vop2
FLAG 2112 -256 Vom2
FLAG 1488 288 Vip2
FLAG 1648 64 Vom2
FLAG 1488 64 Vipx2
FLAG 1360 -256 Vipx2
FLAG 1360 -224 Vimx2
FLAG 1504 -256 Vip2_test
FLAG 1504 -224 Vim2_test
FLAG 1920 288 Vim2
FLAG 2080 64 Vop2
FLAG 1920 64 Vimx2
FLAG 1424 -176 Ti_num
FLAG 1472 -176 Ti_den
FLAG -1216 -48 0
FLAG -1376 -160 Vip2
FLAG -1056 -160 Vim2
SYMBOL voltage -1264 432 R0
WINDOW 123 0 0 Left 0
WINDOW 39 0 0 Left 0
SYMATTR InstName V1
SYMATTR Value 1.65
SYMBOL ota_v4 336 -208 R0
SYMATTR InstName X1
SYMBOL voltage -1776 432 R0
WINDOW 123 0 0 Left 0
WINDOW 39 0 0 Left 0
SYMATTR InstName V2
SYMATTR Value PULSE(0 3.3 0 1n 1n 50n 100n)
SYMBOL voltage -1040 432 R0
WINDOW 123 24 124 Left 2
WINDOW 39 0 0 Left 0
SYMATTR InstName V3
SYMATTR Value 3.3
SYMBOL voltage -1792 -144 R0
WINDOW 123 24 124 Left 2
WINDOW 39 0 0 Left 0
SYMATTR Value2 AC 0
SYMATTR InstName V4
SYMATTR Value {Vicm}
SYMBOL voltage -1968 -160 R270
WINDOW 0 32 56 VTop 2
WINDOW 3 -30 58 VBottom 2
WINDOW 123 -58 58 VBottom 2
WINDOW 39 0 0 Left 0
SYMATTR InstName V5
SYMATTR Value {vid/2}
SYMATTR Value2 AC 0
SYMBOL voltage -1728 -160 R270
WINDOW 0 32 56 VTop 2
WINDOW 3 -32 56 VBottom 2
WINDOW 123 -60 56 VBottom 2
WINDOW 39 0 0 Left 0
SYMATTR InstName V6
SYMATTR Value {vid/2}
SYMATTR Value2 AC 0
SYMBOL Diff_LoopTest -224 -208 R0
SYMATTR SpiceLine Av=1 Ai=0
SYMATTR InstName X2
SYMBOL cap -176 160 R0
SYMATTR InstName C1
SYMATTR Value {Cs}
SYMBOL cap -32 80 R90
WINDOW 0 0 32 VBottom 2
WINDOW 3 32 32 VTop 2
SYMATTR InstName C2
SYMATTR Value {Cf}
SYMBOL res -288 144 R0
SYMATTR InstName R1
SYMATTR Value 100G
SYMBOL cap 256 160 R0
SYMATTR InstName C3
SYMATTR Value {Cs}
SYMBOL cap 400 80 R90
WINDOW 0 0 32 VBottom 2
WINDOW 3 32 32 VTop 2
SYMATTR InstName C4
SYMATTR Value {Cf}
SYMBOL res 144 144 R0
SYMATTR InstName R2
SYMATTR Value 100G
SYMBOL ota_v4 1984 -240 R0
SYMATTR InstName X3
SYMBOL Diff_LoopTest 1424 -240 R0
SYMATTR SpiceLine Av=0 Ai=1
SYMATTR InstName X4
SYMBOL cap 1472 128 R0
SYMATTR InstName C5
SYMATTR Value {Cs}
SYMBOL cap 1616 48 R90
WINDOW 0 0 32 VBottom 2
WINDOW 3 32 32 VTop 2
SYMATTR InstName C6
SYMATTR Value {Cf}
SYMBOL res 1360 112 R0
SYMATTR InstName R3
SYMATTR Value 100G
SYMBOL cap 1904 128 R0
SYMATTR InstName C7
SYMATTR Value {Cs}
SYMBOL cap 2048 48 R90
WINDOW 0 0 32 VBottom 2
WINDOW 3 32 32 VTop 2
SYMATTR InstName C8
SYMATTR Value {Cf}
SYMBOL res 1792 112 R0
SYMATTR InstName R4
SYMATTR Value 100G
SYMBOL voltage -1216 -144 R0
WINDOW 123 24 124 Left 2
WINDOW 39 0 0 Left 0
SYMATTR Value2 AC 0
SYMATTR InstName V7
SYMATTR Value {Vicm}
SYMBOL voltage -1392 -160 R270
WINDOW 0 32 56 VTop 2
WINDOW 3 -30 58 VBottom 2
WINDOW 123 -58 58 VBottom 2
WINDOW 39 0 0 Left 0
SYMATTR InstName V8
SYMATTR Value {vid/2}
SYMATTR Value2 AC 0
SYMBOL voltage -1152 -160 R270
WINDOW 0 32 56 VTop 2
WINDOW 3 -32 56 VBottom 2
WINDOW 123 -60 56 VBottom 2
WINDOW 39 0 0 Left 0
SYMATTR InstName V9
SYMATTR Value {vid/2}
SYMATTR Value2 AC 0
TEXT -1104 -568 Left 2 !.inc ..\\..\\gf180\\cmos_tt.txt
TEXT -1584 -464 Left 2 !.param vid=0 Vicm=1.7
TEXT -48 -808 Left 2 !.param Cs=100f Cf=100f
TEXT -336 -464 Left 2 ;TV SIMULATION
TEXT 1224 -464 Left 2 ;TI SIMULATION
TEXT -1088 -448 Left 2 !.ac dec 1000 1 10G
TEXT -48 800 Left 2 !.meas AC fc WHEN mag(((V(tv_num)/V(tv_den))*(V(ti_num)/V(ti_den))-1)/((V(tv_num)/V(tv_den))+(V(ti_num)/V(ti_den))+2))=1 FALL=1\n \n.meas AC phT FIND (((V(tv_num)/V(tv_den))*(V(ti_num)/V(ti_den))-1)/((V(tv_num)/V(tv_den))+(V(ti_num)/V(ti_den))+2)) WHEN mag(((V(tv_num)/V(tv_den))*(V(ti_num)/V(ti_den))-1)/((V(tv_num)/V(tv_den))+(V(ti_num)/V(ti_den))+2))=1 FALL=1\n.meas AC pm PARAM 180+phT
LINE Normal 1152 -512 1152 448 2
LINE Normal 1152 -528 1152 -512 2
RECTANGLE Normal 2896 464 -416 -528 2
