Version 4
SHEET 1 2296 980
WIRE -2416 -80 -2496 -80
WIRE -2336 -80 -2416 -80
WIRE -1840 -80 -1920 -80
WIRE -1760 -80 -1840 -80
WIRE -2416 -48 -2416 -80
WIRE -1840 -48 -1840 -80
WIRE 864 144 752 144
WIRE 1024 144 864 144
WIRE 1296 144 1184 144
WIRE 1456 144 1296 144
WIRE -624 176 -784 176
WIRE -352 176 -464 176
WIRE -192 176 -352 176
WIRE 864 208 864 144
WIRE 1296 208 1296 144
WIRE -896 240 -896 176
WIRE -784 240 -784 176
WIRE -352 240 -352 176
WIRE 752 320 752 288
WIRE 864 320 864 272
WIRE 864 320 752 320
WIRE 1184 320 1184 288
WIRE 1296 320 1296 272
WIRE 1296 320 1184 320
WIRE -896 352 -896 320
WIRE -784 352 -784 304
WIRE -784 352 -896 352
WIRE -464 352 -464 320
WIRE -352 352 -352 304
WIRE -352 352 -464 352
WIRE 864 368 864 320
WIRE 1296 368 1296 320
WIRE -784 400 -784 352
WIRE -352 400 -352 352
FLAG -1888 608 0
FLAG -2400 608 0
FLAG -2400 528 CK_MASTER
FLAG -1664 608 0
FLAG -1664 528 Vdd
FLAG -2416 32 0
FLAG -2576 -80 Vip1
FLAG -2256 -80 Vim1
FLAG -1888 528 Vocm_target
FLAG -416 -64 Vocm_target
FLAG -160 -192 Vdd
FLAG -416 -112 Vip1_test
FLAG -416 -144 Vim1_test
FLAG -416 -192 CK_MASTER
FLAG -160 -112 Vop1
FLAG -160 -144 Vom1
FLAG -848 -192 Tv_num
FLAG -800 -192 Tv_den
FLAG -784 400 Vip1
FLAG -624 176 Vom1
FLAG -784 176 Vipx1
FLAG -912 -144 Vipx1
FLAG -912 -112 Vimx1
FLAG -768 -144 Vip1_test
FLAG -768 -112 Vim1_test
FLAG -352 400 Vim1
FLAG -192 176 Vop1
FLAG -352 176 Vimx1
FLAG 1232 -96 Vocm_target
FLAG 1488 -224 Vdd
FLAG 1232 -144 Vip2_test
FLAG 1232 -176 Vim2_test
FLAG 1232 -224 CK_MASTER
FLAG 1488 -144 Vop2
FLAG 1488 -176 Vom2
FLAG 864 368 Vip2
FLAG 1024 144 Vom2
FLAG 864 144 Vipx2
FLAG 736 -176 Vipx2
FLAG 736 -144 Vimx2
FLAG 880 -176 Vip2_test
FLAG 880 -144 Vim2_test
FLAG 1296 368 Vim2
FLAG 1456 144 Vop2
FLAG 1296 144 Vimx2
FLAG 800 -96 Ti_num
FLAG 848 -96 Ti_den
FLAG -1840 32 0
FLAG -2000 -80 Vip2
FLAG -1680 -80 Vim2
SYMBOL voltage -1888 512 R0
WINDOW 123 0 0 Left 0
WINDOW 39 0 0 Left 0
SYMATTR InstName V1
SYMATTR Value 1.65
SYMBOL ota_v4 -128 -608 R0
SYMATTR InstName X1
SYMBOL voltage -2400 512 R0
WINDOW 123 0 0 Left 0
WINDOW 39 0 0 Left 0
SYMATTR InstName V2
SYMATTR Value PULSE(3.3 3.3 0 1n 1n 50n 100n)
SYMBOL voltage -1664 512 R0
WINDOW 123 24 124 Left 2
WINDOW 39 0 0 Left 0
SYMATTR InstName V3
SYMATTR Value 3.3
SYMBOL voltage -2416 -64 R0
WINDOW 123 24 124 Left 2
WINDOW 39 0 0 Left 0
SYMATTR Value2 AC 0
SYMATTR InstName V4
SYMATTR Value {Vicm}
SYMBOL voltage -2592 -80 R270
WINDOW 0 32 56 VTop 2
WINDOW 3 -30 58 VBottom 2
WINDOW 123 -58 58 VBottom 2
WINDOW 39 0 0 Left 0
SYMATTR InstName V5
SYMATTR Value {vid/2}
SYMATTR Value2 AC 0
SYMBOL voltage -2352 -80 R270
WINDOW 0 32 56 VTop 2
WINDOW 3 -32 56 VBottom 2
WINDOW 123 -60 56 VBottom 2
WINDOW 39 0 0 Left 0
SYMATTR InstName V6
SYMATTR Value {vid/2}
SYMATTR Value2 AC 0
SYMBOL Diff_LoopTest -848 -128 R0
SYMATTR SpiceLine Av=1 Ai=0
SYMATTR InstName X2
SYMBOL res -912 224 R0
SYMATTR InstName R1
SYMATTR Value 100G
SYMBOL res -480 224 R0
SYMATTR InstName R2
SYMATTR Value 100G
SYMBOL ota_v4 1360 -560 R0
SYMATTR InstName X3
SYMBOL Diff_LoopTest 800 -160 R0
SYMATTR SpiceLine Av=0 Ai=1
SYMATTR InstName X4
SYMBOL res 736 192 R0
SYMATTR InstName R3
SYMATTR Value 100G
SYMBOL res 1168 192 R0
SYMATTR InstName R4
SYMATTR Value 100G
SYMBOL voltage -1840 -64 R0
WINDOW 123 24 124 Left 2
WINDOW 39 0 0 Left 0
SYMATTR Value2 AC 0
SYMATTR InstName V7
SYMATTR Value {Vicm}
SYMBOL voltage -2016 -80 R270
WINDOW 0 32 56 VTop 2
WINDOW 3 -30 58 VBottom 2
WINDOW 123 -58 58 VBottom 2
WINDOW 39 0 0 Left 0
SYMATTR InstName V8
SYMATTR Value {vid/2}
SYMATTR Value2 AC 0
SYMBOL voltage -1776 -80 R270
WINDOW 0 32 56 VTop 2
WINDOW 3 -32 56 VBottom 2
WINDOW 123 -60 56 VBottom 2
WINDOW 39 0 0 Left 0
SYMATTR InstName V9
SYMATTR Value {vid/2}
SYMATTR Value2 AC 0
SYMBOL OTA_LP -288 -128 R0
SYMATTR InstName X5
SYMBOL OTA_LP 1360 -160 R0
SYMATTR InstName X6
TEXT -1728 -488 Left 2 !.inc ..\\..\\gf180\\cmos_tt.txt
TEXT -2208 -384 Left 2 !.param vid=0 Vicm=1.65
TEXT -672 -728 Left 2 !.param Cs=20f Cf=91f
TEXT -960 -384 Left 2 ;TV SIMULATION
TEXT 600 -384 Left 2 ;TI SIMULATION
TEXT -1712 -368 Left 2 !.ac dec 1000 1 10G
TEXT -672 880 Left 2 !.meas AC fc WHEN mag(((V(tv_num)/V(tv_den))*(V(ti_num)/V(ti_den))-1)/((V(tv_num)/V(tv_den))+(V(ti_num)/V(ti_den))+2))=1 FALL=1\n \n.meas AC phT FIND (((V(tv_num)/V(tv_den))*(V(ti_num)/V(ti_den))-1)/((V(tv_num)/V(tv_den))+(V(ti_num)/V(ti_den))+2)) WHEN mag(((V(tv_num)/V(tv_den))*(V(ti_num)/V(ti_den))-1)/((V(tv_num)/V(tv_den))+(V(ti_num)/V(ti_den))+2))=1 FALL=1\n.meas AC pm PARAM 180+phT
TEXT -712 712 Left 2 ;(((V(tv_num)/V(tv_den))*(V(ti_num)/V(ti_den))-1)/((V(tv_num)/V(tv_den))+(V(ti_num)/V(ti_den))+2))
LINE Normal 528 -432 528 528 2
LINE Normal 528 -448 528 -432 2
RECTANGLE Normal 2272 544 -1040 -448 2
