Version 4
SHEET 1 2904 1356
WIRE -1808 -176 -1888 -176
WIRE -1728 -176 -1808 -176
WIRE -1808 -144 -1808 -176
FLAG -1888 560 0
FLAG -2400 560 0
FLAG -2400 480 CK_MASTER
FLAG -1664 560 0
FLAG -1664 480 Vdd
FLAG -1808 -64 0
FLAG -1968 -176 Vip1
FLAG -1648 -176 Vim1
FLAG -1888 480 Vocm_target
FLAG -160 -144 Vocm_target
FLAG 96 -272 Vdd
FLAG -160 -192 Vip1
FLAG -160 -224 Vim1
FLAG -160 -272 CK_MASTER
FLAG 96 -192 Vop1
FLAG 96 -224 Vom1
SYMBOL voltage -1888 464 R0
WINDOW 123 0 0 Left 0
WINDOW 39 0 0 Left 0
SYMATTR InstName V1
SYMATTR Value 1.65
SYMBOL voltage -2400 464 R0
WINDOW 123 0 0 Left 0
WINDOW 39 0 0 Left 0
SYMATTR InstName V2
SYMATTR Value PULSE(0 3.3 0 1n 1n 100n 200n)
SYMBOL voltage -1664 464 R0
WINDOW 123 24 124 Left 2
WINDOW 39 0 0 Left 0
SYMATTR InstName V3
SYMATTR Value 3.3
SYMBOL voltage -1808 -160 R0
WINDOW 123 24 124 Left 2
WINDOW 39 0 0 Left 0
SYMATTR Value2 AC {ac_vicm}
SYMATTR InstName V4
SYMATTR Value {Vicm}
SYMBOL voltage -1984 -176 R270
WINDOW 0 32 56 VTop 2
WINDOW 3 7 -309 VBottom 2
WINDOW 123 -41 -435 VBottom 2
WINDOW 39 0 0 Left 0
SYMATTR InstName V5
SYMATTR Value PULSE(0 {vid/2} 2u 1n 1n 2u 100u)
SYMATTR Value2 AC {ac_vid/2}
SYMBOL voltage -1744 -176 R270
WINDOW 0 32 56 VTop 2
WINDOW 3 7 435 VBottom 2
WINDOW 123 -41 310 VBottom 2
WINDOW 39 0 0 Left 0
SYMATTR InstName V6
SYMATTR Value PULSE(0 {vid/2} 2u 1n 1n 2u 100u)
SYMATTR Value2 AC {ac_vid/2}
SYMBOL OTA_LP -32 -208 R0
SYMATTR InstName X2
TEXT -1120 -584 Left 2 !.inc ..\\..\\gf180\\cmos_tt.txt
TEXT -2328 -608 Left 2 !.param vid=0 Vicm=1.65 ac_vid=1 ac_vicm=0
TEXT -1104 -464 Left 2 ;.ac dec 1000 1 10G
TEXT -64 784 Left 2 !.meas AC fc WHEN mag(((V(tv_num)/V(tv_den))*(V(ti_num)/V(ti_den))-1)/((V(tv_num)/V(tv_den))+(V(ti_num)/V(ti_den))+2))=1 FALL=1\n \n.meas AC phT FIND (((V(tv_num)/V(tv_den))*(V(ti_num)/V(ti_den))-1)/((V(tv_num)/V(tv_den))+(V(ti_num)/V(ti_den))+2)) WHEN mag(((V(tv_num)/V(tv_den))*(V(ti_num)/V(ti_den))-1)/((V(tv_num)/V(tv_den))+(V(ti_num)/V(ti_den))+2))=1 FALL=1\n.meas AC pm PARAM 180+phT
TEXT -1104 -424 Left 2 ;.tran 8u
TEXT -1104 -496 Left 2 ;.dc param vid -40m 40m 100u
TEXT -2416 1144 Left 2 !.measure tran iavg AVG i(V3) from=2.5u to=2.7u\n.measure tran iclk_phi2_avg AVG i(V2) from=2.5u to=2.7u\n \n.measure tran pclk2 PARAM='-iclk_phi2_avg*3.3'\n.measure tran pavg PARAM='-iavg*3.3'\n.measure tran ptot PARAM='pavg+pclk2'
TEXT -2392 880 Left 2 !.meas dc_gain max mag(V(vop1)-V(vom1))\n.meas ac bw find mag(V(vop1)-V(vom1)) when mag(V(vop1)-V(vom1))=dc_gain/sqrt(2)\n.meas GBW dc_gain * bw
TEXT -1104 -384 Left 2 !.op
TEXT -1192 464 Left 2 ;.noise V(vop1,vom1) V3 dec 1000 1k 100Meg
TEXT -1192 512 Left 2 !.meas noise VNOISE_RMS integ V(onoise)\n.meas DC vo_swing FIND V(vop1,vom1) WHEN deriv(V(vop1,vom1))=500\n.meas ac av_dc_dm AVG V(vop1,vom1) from=1 to=10
