Version 4
SHEET 1 3892 1144
WIRE 2128 -160 2128 -320
WIRE 2528 -128 2528 -176
WIRE 1040 -112 1040 -160
WIRE 1648 -112 1648 -160
WIRE 2448 -48 2416 -48
WIRE 2480 -48 2448 -48
WIRE 2128 0 2128 -80
WIRE 2128 0 2000 0
WIRE 2448 0 2448 -48
WIRE 2528 0 2528 -32
WIRE 2528 0 2448 0
WIRE 1040 32 1040 -16
WIRE 1648 32 1648 -16
WIRE 2128 48 2128 0
WIRE 2528 48 2528 0
WIRE 1040 80 1040 32
WIRE 1648 80 1648 32
WIRE 2000 128 2000 0
WIRE 2080 128 2000 128
WIRE -224 160 -224 0
WIRE 208 176 208 128
WIRE 480 176 480 128
WIRE 1040 224 1040 176
WIRE 1648 224 1648 176
WIRE 1040 272 1040 224
WIRE 1648 272 1648 224
WIRE -224 320 -224 240
WIRE -96 320 -224 320
WIRE 208 320 208 272
WIRE 336 320 208 320
WIRE 480 320 480 272
WIRE 480 320 336 320
WIRE -224 368 -224 320
WIRE 336 368 336 320
WIRE 1040 416 1040 368
WIRE 1296 416 1040 416
WIRE 1648 416 1648 368
WIRE 1936 416 1648 416
WIRE -96 448 -96 320
WIRE -96 448 -176 448
WIRE 288 448 -96 448
WIRE 1040 448 1040 416
WIRE 1648 448 1648 416
WIRE 1296 464 1296 416
WIRE 1936 464 1936 416
WIRE 3392 720 3280 720
WIRE 3504 720 3472 720
WIRE 3520 720 3504 720
WIRE 3776 720 3600 720
WIRE -160 784 -240 784
WIRE -80 784 -160 784
WIRE -160 816 -160 784
WIRE 3616 992 3616 928
FLAG 336 464 0
FLAG 208 224 0
FLAG 480 224 0
FLAG 336 416 0
FLAG -224 464 0
FLAG -224 416 0
FLAG -224 0 Vdd
FLAG -704 192 0
FLAG -704 112 Vdd
FLAG -160 896 0
FLAG -320 784 Vip
FLAG 0 784 Vim
FLAG 160 256 Vip
FLAG 528 256 Vim
FLAG 1040 -160 Vdd
FLAG 1040 544 0
FLAG 1040 496 0
FLAG 1040 320 0
FLAG 1040 32 X
FLAG 1040 128 Vdd
FLAG 2128 144 0
FLAG 2128 96 0
FLAG 2128 -320 Vdd
FLAG 992 352 Vb1
FLAG 992 160 Vb2
FLAG 1040 -64 Vdd
FLAG 1648 -160 Vdd
FLAG 1648 544 0
FLAG 1648 496 0
FLAG 1648 320 0
FLAG 1648 32 Y
FLAG 1648 128 Vdd
FLAG 1600 352 Vb1
FLAG 1600 160 Vb2
FLAG 1648 -64 Vdd
FLAG 1696 528 vm1
FLAG 1088 528 vm1
FLAG 2528 -176 Vdd
FLAG 2528 -80 Vdd
FLAG 2528 128 0
FLAG 2416 -48 vm2
FLAG 1600 -32 vm2
FLAG 992 -32 vm2
FLAG 1056 848 0
FLAG 1216 848 0
FLAG 1056 768 Vb1
FLAG 1216 768 Vb2
FLAG 1648 224 Vop
FLAG 1040 224 Vom
FLAG 208 128 X
FLAG 480 128 Y
FLAG 3232 736 Vop
FLAG 3280 800 0
FLAG 3232 784 0
FLAG 3824 736 Vom
FLAG 3776 800 0
FLAG 3824 784 0
FLAG 3504 720 Voc
FLAG 3664 1008 Voc
FLAG 3664 1056 Vocm_target
FLAG 3616 1072 0
FLAG 3616 928 Vctr
FLAG 1472 1040 0
FLAG 1472 960 Vocm_target
FLAG 2000 128 vm1
FLAG 1296 560 0
FLAG 1296 512 0
FLAG 1344 544 vctr
FLAG 1936 560 0
FLAG 1936 512 0
FLAG 1984 544 vctr
SYMBOL nmos4 160 176 R0
SYMATTR InstName M1
SYMATTR Value nmos_3p3
SYMATTR Value2 l='Lpair' w='Wpair' m=1
SYMBOL nmos4 528 176 M0
SYMATTR InstName M2
SYMATTR Value nmos_3p3
SYMATTR Value2 l='Lpair' w='Wpair' m=1
SYMBOL nmos4 288 368 R0
SYMATTR InstName M3
SYMATTR Value nmos_3p3
SYMATTR Value2 l='Ltail' w='Wtail' m=1
SYMBOL nmos4 -176 368 M0
SYMATTR InstName M4
SYMATTR Value nmos_3p3
SYMATTR Value2 l='Ltail' w='Wtail' m=4
SYMBOL current -224 160 R0
WINDOW 123 0 0 Left 0
WINDOW 39 0 0 Left 0
SYMATTR InstName I1
SYMATTR Value 8µ
SYMBOL voltage -704 96 R0
WINDOW 123 0 0 Left 0
WINDOW 39 0 0 Left 0
SYMATTR InstName V1
SYMATTR Value 3.3
SYMBOL voltage -160 800 R0
WINDOW 123 0 0 Left 0
WINDOW 39 0 0 Left 0
SYMATTR InstName V2
SYMATTR Value {Vicm}
SYMBOL voltage -336 784 R270
WINDOW 0 32 56 VTop 2
WINDOW 3 -88 56 VBottom 2
WINDOW 123 -60 56 VBottom 2
WINDOW 39 0 0 Left 0
SYMATTR InstName V3
SYMATTR Value {vid/2}
SYMATTR Value2 AC 1
SYMBOL voltage -96 784 R270
WINDOW 0 32 56 VTop 2
WINDOW 3 -32 56 VBottom 2
WINDOW 123 -60 56 VBottom 2
WINDOW 39 0 0 Left 0
SYMATTR InstName V4
SYMATTR Value {vid/2}
SYMATTR Value2 AC 1
SYMBOL pmos4 992 -112 R0
SYMATTR InstName M5
SYMATTR Value pmos_3p3
SYMATTR Value2 l='Lmirr' w='W5'
SYMBOL pmos4 992 80 R0
SYMATTR InstName M6
SYMATTR Value pmos_3p3
SYMATTR Value2 l='Lcas' w='W3'
SYMBOL nmos4 992 272 R0
SYMATTR InstName M7
SYMATTR Value nmos_3p3
SYMATTR Value2 l='Lcas' w='W7'
SYMBOL nmos4 1088 448 M0
SYMATTR InstName M8
SYMATTR Value nmos_3p3
SYMATTR Value2 l='Lmirr' w='a*W9'
SYMBOL nmos4 2080 48 R0
SYMATTR InstName M9
SYMATTR Value nmos_3p3
SYMATTR Value2 l='Lmirr' w='W9' m=4
SYMBOL current 2128 -160 M0
WINDOW 123 0 0 Left 0
WINDOW 39 0 0 Left 0
SYMATTR InstName I2
SYMATTR Value 8µ
SYMBOL pmos4 1600 -112 R0
SYMATTR InstName M10
SYMATTR Value pmos_3p3
SYMATTR Value2 l='Lmirr' w='W5'
SYMBOL pmos4 1600 80 R0
SYMATTR InstName M11
SYMATTR Value pmos_3p3
SYMATTR Value2 l='Lcas' w='W3'
SYMBOL nmos4 1600 272 R0
SYMATTR InstName M12
SYMATTR Value nmos_3p3
SYMATTR Value2 l='Lcas' w='W7'
SYMBOL nmos4 1696 448 M0
SYMATTR InstName M13
SYMATTR Value nmos_3p3
SYMATTR Value2 l='Lmirr' w='a*W9'
SYMBOL pmos4 2480 -128 R0
SYMATTR InstName M14
SYMATTR Value pmos_3p3
SYMATTR Value2 l='Lmirr' w='W5' m=4
SYMBOL current 2528 48 M0
WINDOW 123 0 0 Left 0
WINDOW 39 0 0 Left 0
SYMATTR InstName I3
SYMATTR Value 12µ
SYMBOL voltage 1056 752 R0
WINDOW 123 0 0 Left 0
WINDOW 39 0 0 Left 0
SYMATTR InstName V5
SYMATTR Value 0.88
SYMBOL voltage 1216 752 R0
WINDOW 123 0 0 Left 0
WINDOW 39 0 0 Left 0
SYMATTR InstName V6
SYMATTR Value 2.33
SYMBOL res 3488 704 R90
WINDOW 0 0 56 VBottom 2
WINDOW 3 32 56 VTop 2
SYMATTR InstName R3
SYMATTR Value 1k
SYMBOL res 3616 704 R90
WINDOW 0 0 56 VBottom 2
WINDOW 3 32 56 VTop 2
SYMATTR InstName R4
SYMATTR Value 1k
SYMBOL e 3280 704 R0
SYMATTR InstName E1
SYMATTR Value 1
SYMBOL e 3776 704 M0
SYMATTR InstName E2
SYMATTR Value 1
SYMBOL e 3616 976 M0
SYMATTR InstName E3
SYMATTR Value 50
SYMBOL voltage 1472 944 R0
WINDOW 123 0 0 Left 0
WINDOW 39 0 0 Left 0
SYMATTR InstName V7
SYMATTR Value 1.65
SYMBOL nmos4 1344 464 M0
SYMATTR InstName M15
SYMATTR Value nmos_3p3
SYMATTR Value2 l='Lmirr' w='(1-a)*W9'
SYMBOL nmos4 1984 464 M0
SYMATTR InstName M16
SYMATTR Value nmos_3p3
SYMATTR Value2 l='Lmirr' w='(1-a)*W9'
TEXT -1032 336 Left 2 !.param Wpair=0.77u Lpair=0.84u
TEXT -1032 400 Left 2 !.param Wtail=1.27u Ltail=2.24u
TEXT -1000 712 Left 2 !.param vid=0 Vicm=1.65
TEXT -1024 784 Left 2 !.inc ..\\..\\gf180\\cmos_tt.txt
TEXT 1064 -256 Left 2 !.op
TEXT 616 -528 Left 2 !.param W5=27.03u W3=7.92u W7=1.92u W9=4.05u Lmirr=1.12u Lcas=0.84u
TEXT 624 -480 Left 2 !.param Vocm_target=1.65
TEXT 624 -408 Left 2 ;.tran 1u
TEXT 616 -448 Left 2 !.param a=0.7
TEXT -240 1128 Left 2 ;.ac dec 1000 1 10G
