Version 4
SHEET 1 2992 1068
WIRE -5168 -1344 -5168 -1472
WIRE -5072 -1264 -5120 -1264
WIRE 80 -1264 -32 -1264
WIRE 448 -1264 368 -1264
WIRE 480 -1264 448 -1264
WIRE -5168 -1200 -5168 -1248
WIRE -5072 -1200 -5072 -1264
WIRE -5072 -1200 -5168 -1200
WIRE -80 -1136 -80 -1248
WIRE 320 -1136 320 -1248
WIRE -5168 -1104 -5168 -1200
WIRE 80 -1056 80 -1264
WIRE 80 -1056 -32 -1056
WIRE 160 -1056 80 -1056
WIRE 272 -1056 160 -1056
WIRE -80 -960 -80 -1040
WIRE 80 -960 80 -1056
WIRE 80 -960 -80 -960
WIRE 320 -960 320 -1040
WIRE 448 -960 448 -1264
WIRE 448 -960 320 -960
WIRE -5168 -912 -5168 -1024
WIRE -5056 -912 -5168 -912
WIRE -2192 -896 -2192 -944
WIRE -1584 -896 -1584 -944
WIRE -5168 -880 -5168 -912
WIRE -4784 -864 -4784 -976
WIRE -4512 -864 -4512 -992
WIRE -4288 -864 -4288 -992
WIRE -80 -816 -80 -960
WIRE -5056 -800 -5056 -912
WIRE -5056 -800 -5120 -800
WIRE -4688 -784 -4736 -784
WIRE -4560 -784 -4688 -784
WIRE -4336 -784 -4560 -784
WIRE 320 -784 320 -960
WIRE -2192 -752 -2192 -800
WIRE -1584 -752 -1584 -800
WIRE -4784 -720 -4784 -768
WIRE -4688 -720 -4688 -784
WIRE -4688 -720 -4784 -720
WIRE -2192 -704 -2192 -752
WIRE -1584 -704 -1584 -752
WIRE -4512 -672 -4512 -768
WIRE -4288 -672 -4288 -768
WIRE -5168 -656 -5168 -784
WIRE -5040 -656 -5168 -656
WIRE -5168 -608 -5168 -656
WIRE -4784 -608 -4784 -720
WIRE -3024 -608 -3024 -656
WIRE -2752 -608 -2752 -656
WIRE -2192 -560 -2192 -608
WIRE -1584 -560 -1584 -608
WIRE -2192 -544 -2192 -560
WIRE -1968 -544 -2192 -544
WIRE -1584 -544 -1584 -560
WIRE -1344 -544 -1584 -544
WIRE -5040 -528 -5040 -656
WIRE -5040 -528 -5120 -528
WIRE -4928 -528 -5040 -528
WIRE -4880 -528 -4928 -528
WIRE -4832 -528 -4880 -528
WIRE -1344 -528 -1344 -544
WIRE -2192 -512 -2192 -544
WIRE -1584 -512 -1584 -544
WIRE -3024 -464 -3024 -512
WIRE -2896 -464 -3024 -464
WIRE -2752 -464 -2752 -512
WIRE -2752 -464 -2896 -464
WIRE -2896 -416 -2896 -464
WIRE 64 -400 -64 -400
WIRE -2192 -368 -2192 -416
WIRE -1936 -368 -2192 -368
WIRE -1584 -368 -1584 -416
WIRE -1296 -368 -1584 -368
WIRE 464 -368 336 -368
WIRE -4880 -336 -4880 -528
WIRE -4880 -336 -4896 -336
WIRE -4832 -336 -4880 -336
WIRE -2944 -336 -3200 -336
WIRE -2192 -336 -2192 -368
WIRE -1584 -336 -1584 -368
WIRE -64 -336 -64 -400
WIRE 336 -336 336 -368
WIRE -1936 -320 -1936 -368
WIRE -1296 -320 -1296 -368
WIRE 64 -256 64 -400
WIRE 64 -256 -16 -256
WIRE 192 -256 64 -256
WIRE 288 -256 192 -256
WIRE -4896 -160 -4896 -336
WIRE -4816 -160 -4896 -160
WIRE -64 -144 -64 -240
WIRE 336 -144 336 -240
WIRE 64 -64 64 -256
WIRE 64 -64 -16 -64
WIRE 464 -64 464 -368
WIRE 464 -64 384 -64
WIRE 512 -64 464 -64
WIRE -2240 416 -2352 416
WIRE -2128 416 -2160 416
WIRE -2112 416 -2128 416
WIRE -1856 416 -2032 416
WIRE -2016 688 -2016 624
FLAG -2896 -320 0
FLAG -3024 -560 0
FLAG -2752 -560 0
FLAG -2896 -368 0
FLAG -5168 -512 0
FLAG -5168 -560 0
FLAG -3072 -528 Vip
IOPIN -3072 -528 In
FLAG -2704 -528 Vim
IOPIN -2704 -528 In
FLAG -2192 -944 Vdd
FLAG -2192 -240 0
FLAG -2192 -288 0
FLAG -2192 -464 0
FLAG -2192 -752 X
FLAG -2192 -656 Vdd
FLAG -2240 -432 Vb1
FLAG -2240 -624 Vb2
FLAG -2192 -848 Vdd
FLAG -1584 -944 Vdd
FLAG -1584 -240 0
FLAG -1584 -288 0
FLAG -1584 -464 0
FLAG -1584 -752 Y
FLAG -1584 -656 Vdd
FLAG -1632 -432 Vb1
FLAG -1632 -624 Vb2
FLAG -1584 -848 Vdd
FLAG -1536 -256 vm2
FLAG -2144 -256 vm2
FLAG -1632 -816 vm3
FLAG -2240 -816 vm3
FLAG -1584 -560 Vop
IOPIN -1584 -560 Out
FLAG -2192 -560 Vom
IOPIN -2192 -560 Out
FLAG -3024 -656 X
FLAG -2752 -656 Y
FLAG -4928 -528 vm1
FLAG -1936 -224 0
FLAG -1936 -272 0
FLAG -1888 -240 vctr
FLAG -1296 -224 0
FLAG -1296 -272 0
FLAG -1248 -240 vctr
FLAG -1968 -480 0
FLAG -1344 -464 0
FLAG -3200 -336 vm1
FLAG -4784 -512 0
FLAG -4784 -560 0
FLAG -4784 -816 Vdd
FLAG -4784 -976 Vdd
FLAG -4512 -816 Vdd
FLAG -4512 -992 Vdd
FLAG -4512 -672 a
FLAG -4784 -320 0
FLAG -4784 -368 0
FLAG -4784 -416 c
FLAG -5168 -1472 Vdd
IOPIN -5168 -1472 In
FLAG -5168 -832 0
FLAG -5168 -1296 Vdd
FLAG -64 -48 0
FLAG -64 -96 0
FLAG -64 -288 0
FLAG 336 -48 0
FLAG 336 -96 0
FLAG 512 -64 vm2
FLAG 336 -288 0
FLAG 192 -256 Vb1
FLAG -80 -1296 Vdd
FLAG -80 -1344 Vdd
FLAG -80 -1088 Vdd
FLAG 320 -1296 Vdd
FLAG 320 -1344 Vdd
FLAG 320 -1088 Vdd
FLAG 480 -1264 vm3
FLAG 160 -1056 Vb2
FLAG -64 -400 a
FLAG 336 -368 b
FLAG -80 -816 c
FLAG 320 -784 d
FLAG -4768 -144 0
FLAG -4768 -192 0
FLAG -4768 -240 d
FLAG -4288 -816 Vdd
FLAG -4288 -992 Vdd
FLAG -4288 -672 b
FLAG 1776 560 Vdd
FLAG 1776 608 CK_MASTER
IOPIN 1776 608 In
FLAG 1968 560 CK_PHI1
FLAG 1968 624 CK_PHI2
FLAG 1968 592 CK_PHI1_BAR
FLAG 1968 656 CK_PHI2_BAR
FLAG 2656 448 CK_PHI1
FLAG 2656 512 CK_PHI2
FLAG 2656 480 CK_PHI1_BAR
FLAG 2656 544 CK_PHI2_BAR
FLAG 2656 704 Vop
FLAG 2656 672 Vom
FLAG 2656 640 Vocm_target
IOPIN 2656 640 In
FLAG 2656 608 vm2
FLAG 2928 448 Vdd
FLAG -2400 432 Vop
FLAG -2352 496 0
FLAG -2400 480 0
FLAG -1808 432 Vom
FLAG -1856 496 0
FLAG -1808 480 0
FLAG -2128 416 Voc
FLAG -1968 704 Voc
FLAG -1968 752 Vocm_target
FLAG -2016 768 0
FLAG 2928 576 vctr
SYMBOL nmos4 -3072 -608 R0
SYMATTR InstName M1
SYMATTR Value nmos_3p3
SYMATTR Value2 l='Lpair' w='Wpair' m=1
SYMBOL nmos4 -2704 -608 M0
SYMATTR InstName M2
SYMATTR Value nmos_3p3
SYMATTR Value2 l='Lpair' w='Wpair' m=1
SYMBOL nmos4 -2944 -416 R0
SYMATTR InstName M3
SYMATTR Value nmos_3p3
SYMATTR Value2 l='Ltail' w='Wtail/Mtail' m=Mtail
SYMBOL nmos4 -5120 -608 M0
SYMATTR InstName M4
SYMATTR Value nmos_3p3
SYMATTR Value2 l='Ltail' w='Wtail/Mtail' m=1
SYMBOL pmos4 -2240 -896 R0
SYMATTR InstName M5
SYMATTR Value pmos_3p3
SYMATTR Value2 l='Lmirr' w='W5/M1' m='M1'
SYMBOL pmos4 -2240 -704 R0
SYMATTR InstName M6
SYMATTR Value pmos_3p3
SYMATTR Value2 l='Lcas' w='W3/M2' m='M2'
SYMBOL nmos4 -2240 -512 R0
SYMATTR InstName M7
SYMATTR Value nmos_3p3
SYMATTR Value2 l='Lcas' w='W7/M3' m='M3'
SYMBOL nmos4 -2144 -336 M0
SYMATTR InstName M8
SYMATTR Value nmos_3p3
SYMATTR Value2 l='Lmirr' w='a*W9/M3' m='M3'
SYMBOL pmos4 -1632 -896 R0
SYMATTR InstName M9
SYMATTR Value pmos_3p3
SYMATTR Value2 l='Lmirr' w='W5/M1' m='M1'
SYMBOL pmos4 -1632 -704 R0
SYMATTR InstName M10
SYMATTR Value pmos_3p3
SYMATTR Value2 l='Lcas' w='W3/M2' m='M2'
SYMBOL nmos4 -1632 -512 R0
SYMATTR InstName M11
SYMATTR Value nmos_3p3
SYMATTR Value2 l='Lcas' w='W7/M3' m='M3'
SYMBOL nmos4 -1536 -336 M0
SYMATTR InstName M12
SYMATTR Value nmos_3p3
SYMATTR Value2 l='Lmirr' w='a*W9/M3' m='M3'
SYMBOL nmos4 -1888 -320 M0
SYMATTR InstName M13
SYMATTR Value nmos_3p3
SYMATTR Value2 l='Lmirr' w='(1-a)*W9/M3' m='M3'
SYMBOL nmos4 -1248 -320 M0
SYMATTR InstName M14
SYMATTR Value nmos_3p3
SYMATTR Value2 l='Lmirr' w='(1-a)*W9/M3' m='M3'
SYMBOL cap -1984 -544 R0
SYMATTR InstName C1
SYMATTR Value 100f
SYMBOL cap -1360 -528 R0
SYMATTR InstName C2
SYMATTR Value 100f
SYMBOL current -5168 -1104 R0
WINDOW 123 0 0 Left 0
WINDOW 39 0 0 Left 0
SYMATTR InstName I1
SYMATTR Value 500n
SYMBOL nmos4 -4832 -608 R0
SYMATTR InstName M15
SYMATTR Value nmos_3p3
SYMATTR Value2 l='Ltail' w='Wtail/Mtail' m=1
SYMBOL pmos4 -4736 -864 M0
SYMATTR InstName M16
SYMATTR Value pmos_3p3
SYMATTR Value2 l='Lcopy' w='Wcopy_p' m=1
SYMBOL pmos4 -4560 -864 R0
SYMATTR InstName M17
SYMATTR Value pmos_3p3
SYMATTR Value2 l='Lcopy' w='Wcopy_p' m=Mp
SYMBOL nmos4 -4832 -416 R0
SYMATTR InstName M18
SYMATTR Value nmos_3p3
SYMATTR Value2 l='Ltail' w='Wtail/Mtail' m=Mn
SYMBOL nmos4 -5120 -880 M0
SYMATTR InstName M19
SYMATTR Value nmos_3p3
SYMATTR Value2 l=4.48u w=1u m=1
SYMBOL pmos4 -5120 -1344 M0
SYMATTR InstName M20
SYMATTR Value pmos_3p3
SYMATTR Value2 l=4.48u w=1u m=1
SYMBOL nmos4 -16 -144 M0
SYMATTR InstName M21
SYMATTR Value nmos_3p3
SYMATTR Value2 l='Lmirr' w='(1/3)*W9/M3'
SYMBOL nmos4 -16 -336 M0
SYMATTR InstName M22
SYMATTR Value nmos_3p3
SYMATTR Value2 l='Lcas' w='W7/M3'
SYMBOL nmos4 384 -144 M0
SYMATTR InstName M23
SYMATTR Value nmos_3p3
SYMATTR Value2 l='Lmirr' w='W9/M3'
SYMBOL nmos4 288 -336 R0
SYMATTR InstName M24
SYMATTR Value nmos_3p3
SYMATTR Value2 l='Lcas' w='W7/M3'
SYMBOL pmos4 -32 -1344 M0
SYMATTR InstName M25
SYMATTR Value pmos_3p3
SYMATTR Value2 l='Lmirr' w='(1/3)*W5/M1'
SYMBOL pmos4 -32 -1136 M0
SYMATTR InstName M26
SYMATTR Value pmos_3p3
SYMATTR Value2 l='Lcas' w='W3/M2' m=1
SYMBOL pmos4 368 -1344 M0
SYMATTR InstName M27
SYMATTR Value pmos_3p3
SYMATTR Value2 l='Lmirr' w='W5/M1' m=1
SYMBOL pmos4 272 -1136 R0
SYMATTR InstName M28
SYMATTR Value pmos_3p3
SYMATTR Value2 l='Lcas' w='W3/M2' m=1
SYMBOL nmos4 -4816 -240 R0
SYMATTR InstName M29
SYMATTR Value nmos_3p3
SYMATTR Value2 l='Ltail' w='Wtail/Mtail' m=Mn
SYMBOL pmos4 -4336 -864 R0
SYMATTR InstName M30
SYMATTR Value pmos_3p3
SYMATTR Value2 l='Lcopy' w='Wcopy_p' m=Mp
SYMBOL PHASE_GEN 1872 608 R0
SYMATTR InstName X3
SYMBOL CS_CMFB_V2 2784 576 R0
SYMATTR InstName X4
SYMBOL res -2144 400 R90
WINDOW 0 0 56 VBottom 2
WINDOW 3 32 56 VTop 2
SYMATTR InstName R1
SYMATTR Value 1k
SYMBOL res -2016 400 R90
WINDOW 0 0 56 VBottom 2
WINDOW 3 32 56 VTop 2
SYMATTR InstName R2
SYMATTR Value 1k
SYMBOL e -2352 400 R0
SYMATTR InstName E1
SYMATTR Value 1
SYMBOL e -1856 400 M0
SYMATTR InstName E2
SYMATTR Value 1
SYMBOL e -2016 672 M0
SYMATTR InstName E3
SYMATTR Value 300
TEXT -3368 -984 Left 2 !.param Wpair=12.63u Lpair=0.28u
TEXT -3368 -952 Left 2 !.param Wtail=2.64u Ltail=4.48u Mtail=4
TEXT -4856 328 Left 2 !.param vid=0 Vicm=1.65
TEXT -4880 400 Left 2 !.inc ..\\..\\gf180\\cmos_tt.txt
TEXT -2168 -1040 Left 2 ;.op
TEXT -2616 -1312 Left 2 !.param W5=22.99u W3=7.92u W7=1.92u W9=3.53u Lmirr=2.24u Lcas=0.84u
TEXT -2616 -1264 Left 2 !.param Vocm_target=1.65
TEXT -2608 -1184 Left 2 ;.tran 5u
TEXT -2616 -1224 Left 2 !.param a=0.7
TEXT -3488 616 Left 2 ;.ac dec 1000 1 10G
TEXT -3488 656 Left 2 ;.dc param vid -2.5m 2.5m 10u
TEXT -4848 248 Left 2 !.meas dc_gain max mag(V(vop)-V(vom))\n.meas ac bw find mag(V(vop)-V(vom)) when mag(V(vop)-V(vom))=dc_gain/sqrt(2)
TEXT -4784 -1152 Left 2 !.param Lcopy=4.48u Wcopy_p=34.48u
TEXT -4800 -1216 Left 2 ;Master CURRENT BRANCH
TEXT -3408 -1016 Left 2 ;INPUT DIFFERENTIAL PAIR
TEXT -3488 696 Left 2 !.noise V(vop,vom) V3 dec 1000 1k 100Meg
TEXT -3488 744 Left 2 !.meas noise VNOISE_RMS integ V(onoise)
TEXT -4784 -1128 Left 2 !.param Mn=2 Mp=2
TEXT 856 912 Left 2 !.measure tran iavg AVG i(V1) from=2u to=2.1u\n.measure tran iclk_phi_avg AVG i(V6) from=2u to=2.1u\n \n.measure tran pclk2 PARAM='-iclk_phi_avg*3.3'\n.measure tran pavg PARAM='-iavg*3.3'\n.measure tran ptot PARAM='pavg+pclk2'
TEXT 32 472 Left 2 !;.ic V(Vctr)=788.7m
TEXT -56 -592 Left 2 !.param M3=2
TEXT -88 -672 Left 2 !.param M1=3 M2=2
