Version 4
SHEET 1 880 2456
WIRE -1520 -368 -1600 -368
WIRE -1424 -368 -1520 -368
WIRE -5072 -352 -5072 -400
WIRE -4800 -352 -4800 -400
WIRE -640 -336 -640 -368
WIRE -544 -336 -640 -336
WIRE -7024 -320 -7024 -400
WIRE -640 -320 -640 -336
WIRE -6928 -240 -6976 -240
WIRE -1648 -240 -1648 -352
WIRE -544 -240 -544 -336
WIRE -544 -240 -592 -240
WIRE -5072 -208 -5072 -256
WIRE -4944 -208 -5072 -208
WIRE -4800 -208 -4800 -256
WIRE -4800 -208 -4944 -208
WIRE -640 -192 -640 -224
WIRE -640 -192 -784 -192
WIRE -7024 -176 -7024 -224
WIRE -6928 -176 -6928 -240
WIRE -6928 -176 -7024 -176
WIRE -3824 -176 -3824 -224
WIRE -3216 -176 -3216 -224
WIRE -640 -176 -640 -192
WIRE -4944 -160 -4944 -208
WIRE -1840 -160 -1888 -160
WIRE -1696 -160 -1840 -160
WIRE -7024 -128 -7024 -176
WIRE -544 -96 -544 -240
WIRE -544 -96 -592 -96
WIRE -4992 -80 -5248 -80
WIRE -1648 -64 -1648 -144
WIRE -1520 -64 -1520 -368
WIRE -1520 -64 -1648 -64
WIRE -3824 -32 -3824 -80
WIRE -3216 -32 -3216 -80
WIRE -640 -16 -640 -80
WIRE -512 -16 -640 -16
WIRE -3824 16 -3824 -32
WIRE -3216 16 -3216 -32
WIRE -640 16 -640 -16
WIRE -6640 48 -6640 -64
WIRE -6368 48 -6368 -80
WIRE -7024 64 -7024 -48
WIRE -6912 64 -7024 64
WIRE -7024 96 -7024 64
WIRE -784 96 -784 -192
WIRE -784 96 -912 96
WIRE -688 96 -784 96
WIRE -1648 112 -1648 -64
WIRE -6544 128 -6592 128
WIRE -6416 128 -6544 128
WIRE -6912 176 -6912 64
WIRE -6912 176 -6976 176
WIRE -3824 176 -3824 112
WIRE -3824 176 -3888 176
WIRE -3216 176 -3216 112
WIRE -3216 176 -3248 176
WIRE -6640 192 -6640 144
WIRE -6544 192 -6544 128
WIRE -6544 192 -6640 192
WIRE -1536 192 -1600 192
WIRE -3824 208 -3824 176
WIRE -3216 208 -3216 176
WIRE -640 208 -640 112
WIRE -6368 240 -6368 144
WIRE -7024 256 -7024 192
WIRE -6896 256 -7024 256
WIRE -1840 256 -1840 -160
WIRE -1648 256 -1648 208
WIRE -1648 256 -1840 256
WIRE -1648 288 -1648 256
WIRE -512 288 -512 -16
WIRE -512 288 -592 288
WIRE -464 288 -512 288
WIRE -7024 304 -7024 256
WIRE -6640 304 -6640 192
WIRE -3824 352 -3824 304
WIRE -3568 352 -3824 352
WIRE -3216 352 -3216 304
WIRE -2928 352 -3216 352
WIRE -1536 368 -1536 192
WIRE -1536 368 -1600 368
WIRE -6896 384 -6896 256
WIRE -6896 384 -6976 384
WIRE -6784 384 -6896 384
WIRE -6736 384 -6784 384
WIRE -6688 384 -6736 384
WIRE -3824 384 -3824 352
WIRE -3216 384 -3216 352
WIRE -3568 400 -3568 352
WIRE -2928 400 -2928 352
WIRE -7024 416 -7024 400
WIRE -1648 416 -1648 384
WIRE -1536 416 -1536 368
WIRE -1536 416 -1648 416
WIRE -1648 464 -1648 416
WIRE -6736 576 -6736 384
WIRE -6688 576 -6736 576
WIRE -6640 608 -6640 592
WIRE -1152 1152 -1152 1104
WIRE -1232 1200 -1360 1200
WIRE -912 1200 -1072 1200
WIRE -1152 1264 -1152 1248
WIRE -1152 1472 -1152 1424
WIRE -1232 1520 -1360 1520
WIRE -912 1520 -1072 1520
WIRE -1152 1584 -1152 1568
FLAG -1424 -368 vm3
FLAG -1888 -160 Vb2
FLAG -1648 464 c
FLAG -464 288 vm2
FLAG -912 96 Vb1
FLAG -640 -368 a
FLAG -5120 -272 Vip
IOPIN -5120 -272 In
FLAG -4752 -272 Vim
IOPIN -4752 -272 In
FLAG -3824 -224 Vdd
IOPIN -3824 -224 In
FLAG -3824 -32 X
FLAG -3872 288 Vb1
FLAG -3872 96 Vb2
FLAG -3216 -32 Y
FLAG -3264 288 Vb1
FLAG -3264 96 Vb2
FLAG -3168 464 vm2
FLAG -3776 464 vm2
FLAG -3264 -96 vm3
FLAG -3872 -96 vm3
FLAG -3248 176 Vop
IOPIN -3248 176 Out
FLAG -3888 176 Vom
IOPIN -3888 176 Out
FLAG -5072 -400 X
FLAG -4800 -400 Y
FLAG -6784 384 vm1
FLAG -3520 480 vctr
FLAG -2880 480 vctr
FLAG -5248 -80 vm1
FLAG -6368 240 a
FLAG -6640 496 c
FLAG -7024 -400 Vdd
IOPIN -7024 -400 In
FLAG -1152 1104 Vdd
IOPIN -1152 1104 In
FLAG -1360 1200 CK_PHI2
IOPIN -1360 1200 In
FLAG -912 1200 CK_PHI2_BAR
FLAG -1152 1424 Vdd
IOPIN -1152 1424 In
FLAG -1360 1520 CK_PHI1
IOPIN -1360 1520 In
FLAG -912 1520 CK_PHI1_BAR
FLAG -336 1264 CK_PHI2
IOPIN -336 1264 In
FLAG -336 1200 CK_PHI1
IOPIN -336 1200 In
FLAG -336 1296 CK_PHI2_BAR
FLAG -336 1232 CK_PHI1_BAR
FLAG -336 1360 Vm2
FLAG -64 1328 vctr
FLAG -336 1392 Vocm_target
IOPIN -336 1392 In
FLAG -336 1424 Vom
IOPIN -336 1424 Out
FLAG -336 1456 Vop
IOPIN -336 1456 Out
FLAG -6640 -64 Vdd
IOPIN -6640 -64 In
FLAG -6368 -80 Vdd
IOPIN -6368 -80 In
FLAG -3216 -224 Vdd
IOPIN -3216 -224 In
FLAG -7024 416 Vss
IOPIN -7024 416 In
FLAG -6640 608 Vss
IOPIN -6640 608 In
FLAG -4944 -64 Vss
IOPIN -4944 -64 In
FLAG -7024 352 Vss
IOPIN -7024 352 In
FLAG -6640 352 Vss
IOPIN -6640 352 In
FLAG -6640 544 Vss
IOPIN -6640 544 In
FLAG -7024 144 Vss
IOPIN -7024 144 In
FLAG -4944 -112 Vss
IOPIN -4944 -112 In
FLAG -5072 -304 Vss
IOPIN -5072 -304 In
FLAG -4800 -304 Vss
IOPIN -4800 -304 In
FLAG -3824 480 Vss
IOPIN -3824 480 In
FLAG -3568 496 Vss
IOPIN -3568 496 In
FLAG -3216 480 Vss
IOPIN -3216 480 In
FLAG -2928 496 Vss
IOPIN -2928 496 In
FLAG -2928 448 Vss
IOPIN -2928 448 In
FLAG -3216 432 Vss
IOPIN -3216 432 In
FLAG -3568 448 Vss
IOPIN -3568 448 In
FLAG -3824 256 Vss
IOPIN -3824 256 In
FLAG -3216 256 Vss
IOPIN -3216 256 In
FLAG -3824 432 Vss
IOPIN -3824 432 In
FLAG -640 304 Vss
IOPIN -640 304 In
FLAG -640 256 Vss
IOPIN -640 256 In
FLAG -640 64 Vss
IOPIN -640 64 In
FLAG -640 -128 Vss
IOPIN -640 -128 In
FLAG -640 -272 Vss
IOPIN -640 -272 In
FLAG -1152 1264 Vss
IOPIN -1152 1264 In
FLAG -1152 1584 Vss
IOPIN -1152 1584 In
FLAG -64 1200 Vdd
IOPIN -64 1200 In
FLAG -1648 -448 Vdd
IOPIN -1648 -448 In
FLAG -1648 -192 Vdd
IOPIN -1648 -192 In
FLAG -1648 160 Vdd
IOPIN -1648 160 In
FLAG -1648 336 Vdd
IOPIN -1648 336 In
FLAG -1648 -400 Vdd
IOPIN -1648 -400 In
FLAG -3824 -128 Vdd
IOPIN -3824 -128 In
FLAG -3824 64 Vdd
IOPIN -3824 64 In
FLAG -3216 64 Vdd
IOPIN -3216 64 In
FLAG -3216 -128 Vdd
IOPIN -3216 -128 In
FLAG -6640 96 Vdd
IOPIN -6640 96 In
FLAG -6368 96 Vdd
IOPIN -6368 96 In
FLAG -7024 -272 Vdd
IOPIN -7024 -272 In
FLAG -6640 400 Vss
IOPIN -6640 400 In
DATAFLAG -5088 -80 ""
DATAFLAG -1792 -160 ""
DATAFLAG -1536 -368 ""
DATAFLAG -832 96 ""
DATAFLAG -528 288 ""
DATAFLAG -3824 176 ""
DATAFLAG -4928 -208 ""
DATAFLAG -3664 352 ""
DATAFLAG -3344 192 "Id(M18)"
DATAFLAG -3360 -128 "Id(M17)"
DATAFLAG -4784 -112 "Id(M11)"
DATAFLAG -5200 -384 "Id(M9)"
DATAFLAG -4704 -400 "Id(M9)"
DATAFLAG -3744 -16 "V(X)"
DATAFLAG -3344 384 "Id(M20)"
DATAFLAG -2816 384 "Id(M22)"
DATAFLAG -6896 336 ""
DATAFLAG -6368 208 "Id(M25)"
DATAFLAG -6640 464 "Id(M26)"
DATAFLAG -640 -400 "Id(M6)"
DATAFLAG -1648 512 "Id(M6)"
SYMBOL pmos4 -1600 -448 M0
SYMATTR InstName M1
SYMATTR Value pmos_3p3
SYMATTR Value2 l='Lmirr' w='W5' m=Mcopy_fold
SYMBOL pmos4 -1696 -240 R0
SYMATTR InstName M2
SYMATTR Value pmos_3p3
SYMATTR Value2 l='Lcas' w='W3' m=Mcopy_cas
SYMBOL nmos4 -592 208 M0
SYMATTR InstName M3
SYMATTR Value nmos_3p3
SYMATTR Value2 l='Lmirr' w='W9' m=Mcopy_cas
SYMBOL nmos4 -688 16 R0
SYMATTR InstName M4
SYMATTR Value nmos_3p3
SYMATTR Value2 l='Lcas' w='W7' m=Mcopy_cas
SYMBOL nmos4 -592 -176 M0
SYMATTR InstName M5
SYMATTR Value nmos_3p3
SYMATTR Value2 l='Lcas' w='(1/6)*W7' m=Mcopy_cas
SYMBOL nmos4 -592 -320 M0
SYMATTR InstName M6
SYMATTR Value nmos_3p3
SYMATTR Value2 l='Lcas' w='W7' m=Mcopy_cas
SYMBOL pmos4 -1600 112 M0
SYMATTR InstName M7
SYMATTR Value pmos_3p3
SYMATTR Value2 l='Lcas' w='(1/5)*W3' m=Mcopy_cas
SYMBOL pmos4 -1600 288 M0
SYMATTR InstName M8
SYMATTR Value pmos_3p3
SYMATTR Value2 l='Lcas' w='W3' m=Mcopy_cas
SYMBOL nmos4 -5120 -352 R0
SYMATTR InstName M9
SYMATTR Value nmos_3p3
SYMATTR Value2 l='Lpair' w='Wpair' m=1
SYMBOL nmos4 -4752 -352 M0
SYMATTR InstName M10
SYMATTR Value nmos_3p3
SYMATTR Value2 l='Lpair' w='Wpair' m=1
SYMBOL nmos4 -4992 -160 R0
SYMATTR InstName M11
SYMATTR Value nmos_3p3
SYMATTR Value2 l='Ltail' w='Wtail' m=1
SYMBOL nmos4 -6976 304 M0
SYMATTR InstName M12
SYMATTR Value nmos_3p3
SYMATTR Value2 l='Ltail' w='Wtail' m=Mcopy_tail
SYMBOL pmos4 -3872 -176 R0
SYMATTR InstName M13
SYMATTR Value pmos_3p3
SYMATTR Value2 l='Lmirr' w='W5' m=1
SYMBOL pmos4 -3872 16 R0
SYMATTR InstName M14
SYMATTR Value pmos_3p3
SYMATTR Value2 l='Lcas' w='W3' m=1
SYMBOL nmos4 -3872 208 R0
SYMATTR InstName M15
SYMATTR Value nmos_3p3
SYMATTR Value2 l='Lcas' w='W7'
SYMBOL nmos4 -3776 384 M0
SYMATTR InstName M16
SYMATTR Value nmos_3p3
SYMATTR Value2 l='Lmirr' w='a*W9'
SYMBOL pmos4 -3264 -176 R0
SYMATTR InstName M17
SYMATTR Value pmos_3p3
SYMATTR Value2 l='Lmirr' w='W5' m=1
SYMBOL pmos4 -3264 16 R0
SYMATTR InstName M18
SYMATTR Value pmos_3p3
SYMATTR Value2 l='Lcas' w='W3' m=1
SYMBOL nmos4 -3264 208 R0
SYMATTR InstName M19
SYMATTR Value nmos_3p3
SYMATTR Value2 l='Lcas' w='W7'
SYMBOL nmos4 -3168 384 M0
SYMATTR InstName M20
SYMATTR Value nmos_3p3
SYMATTR Value2 l='Lmirr' w='a*W9'
SYMBOL nmos4 -3520 400 M0
SYMATTR InstName M21
SYMATTR Value nmos_3p3
SYMATTR Value2 l='Lmirr' w='(1-a)*W9'
SYMBOL nmos4 -2880 400 M0
SYMATTR InstName M22
SYMATTR Value nmos_3p3
SYMATTR Value2 l='Lmirr' w='(1-a)*W9'
SYMBOL nmos4 -6688 304 R0
SYMATTR InstName M23
SYMATTR Value nmos_3p3
SYMATTR Value2 l='Ltail' w='Wtail' m=Mcopy_tail
SYMBOL pmos4 -6592 48 M0
SYMATTR InstName M24
SYMATTR Value pmos_3p3
SYMATTR Value2 l='Lcopy' w='Wcopy_p'
SYMBOL pmos4 -6416 48 R0
SYMATTR InstName M25
SYMATTR Value pmos_3p3
SYMATTR Value2 l='Lcopy' w='Wcopy_p'
SYMBOL nmos4 -6688 496 R0
SYMATTR InstName M26
SYMATTR Value nmos_3p3
SYMATTR Value2 l='Ltail' w='Wtail' m=Mcopy_tail
SYMBOL nmos4 -6976 96 M0
SYMATTR InstName M27
SYMATTR Value nmos_3p3
SYMATTR Value2 l='Ltail' w=2.64u m=3
SYMBOL pmos4 -6976 -320 M0
SYMATTR InstName M28
SYMATTR Value pmos_3p3
SYMATTR Value2 l='Ltail' w='Wcopy_p'
SYMBOL CS_CMFB -208 1328 R0
SYMATTR InstName X1
SYMBOL INVx1 -1152 1200 R0
SYMATTR InstName X2
SYMBOL INVx1 -1152 1520 R0
SYMATTR InstName X3
SYMBOL res -7040 -144 R0
SYMATTR InstName R3
SYMATTR Value 45833.33
TEXT -5424 -600 Left 2 !.param Wpair=45.2u Lpair=1.12u
TEXT -5424 -568 Left 2 !.param Wtail=2.64u Ltail=4.48u
TEXT -6488 1048 Left 2 !.param vid=0 Vicm=1.65
TEXT -6512 1120 Left 2 !.inc ..\\..\\gf180\\cmos_tt.txt
TEXT -3800 -320 Left 2 !.op
TEXT -3920 -528 Left 2 !.param W5=22.99u W3=7.92u W7=1.92u W9=3.53u Lmirr=2.24u Lcas=0.84u
TEXT -3920 -496 Left 2 !.param Vocm_target=1.65
TEXT -3920 -432 Left 2 ;.tran 10u
TEXT -3920 -464 Left 2 !.param a=0.7
TEXT -5120 1336 Left 2 ;.ac dec 1000 1 10G
TEXT -5120 1376 Left 2 ;.dc param vid -40m 40m 100u
TEXT -6480 968 Left 2 !.meas dc_gain max mag(V(vop)-V(vom))\n.meas ac bw find mag(V(vop)-V(vom)) when mag(V(vop)-V(vom))=dc_gain/sqrt(2)
TEXT -7136 -536 Left 2 !.param Lcopy=4.48u Wcopy_p=35.91u
TEXT -7192 -728 Left 2 ;Master CURRENT BRANCH\n- M12 copies current to tail transistor. (6uA -> 2uA)\n- M26 copies current to cascode NMOS current mirrors. (6uA -> 6uA)\n- M24, M25 copies current to cascode PMOS. (6uA -> 6uA)\n- All NMOS transistors have W=Wtail; L=Ltail; M=Mcopy_tail\n- All PMOS transistros havw W=Wcopy_p L=copy
TEXT -5448 -688 Left 2 ;INPUT DIFFERENTIAL PAIR\n- gm/Id pair: 23.8\n- gm/Id tail: 8
TEXT -5120 1416 Left 2 ;.noise V(vop,vom) V3 dec 1000 1 20k
TEXT -5120 1464 Left 2 !.meas noise VNOISE_RMS integ V(onoise)\n.meas DC vo_swing FIND V(vop,vom) WHEN deriv(V(vop,vom))=500\n.meas ac av_dc_dm AVG V(vop,vom) from=1 to=10
TEXT -7136 -512 Left 2 !.param Mn=2 Mp=4 Mcopy_tail=3
TEXT -2016 -544 Left 2 !.param Mcopy_cas=3 Mcopy_fold=2
TEXT -2040 -640 Left 2 ;CURRENT MIRROR FOR CASCODE BRANCH\n- Mcopy_cas: 6uA -> 2uA\n- Mcopy_fold: 6uA -> 3uA
TEXT -2008 576 Left 2 ;COPIES CURRENT TO PMOS CASCODE BRANCH
TEXT -888 544 Left 2 ;COPIES CURRENT TO NMOS CASCODE BRANCH
TEXT -1872 1888 Left 2 !.measure tran iavg AVG i(V1) from=4u to=5u\n.measure tran iclk_phi2_avg AVG i(V6) from=4u to=5u\n.measure tran iclk_phi1_avg AVG i(V7) from=4u to=5u\n \n.measure tran pclk2 PARAM='-iclk_phi2_avg*3.3'\n.measure tran pclk1 PARAM='-iclk_phi1_avg*3.3'\n.measure tran pavg PARAM='-iavg*3.3'\n.measure tran ptot PARAM='pavg+pclk1+pclk2'
TEXT -3936 -680 Left 2 ;OUTPUT CASCODE BRANCH\n- gm/Id M13/17: 14\n- gm/Id M14/18: 12\n- gm/Id M15/19: 12\n- gm/Id M16/20: 14
TEXT -2032 928 Left 2 ;SC CMFB\n- Real CMFB, just for .tran simulations
TEXT -2720 -152 Left 2 ;W13,17=W5\nL13,17=Lmirr
TEXT -2712 24 Left 2 ;W14,18=W3\nL14,18=Lcas
TEXT -2712 200 Left 2 ;W13,17=W7\nL13,17=Lcas
TEXT -2696 400 Left 2 ;W16,20=W9\nL16,20=Lmirr
TEXT -336 -320 Left 2 ;W6,4 = W7\nM6,4 = Mcopy_cas\nL6,4 = Lcas
TEXT -336 -168 Left 2 ;W5 = (1/6)W7\nM5 = Mcopy_cas\nL5 = Lcas
TEXT -328 -32 Left 2 ;W3 = W9\nM3 = Mcopy_cas\nL3 = Lmirr
TEXT -1416 -288 Left 2 ;W2,8 = W3\nM2,8 = Mcopy_cas\nL2,8 = Lcas
TEXT -1416 -136 Left 2 ;W7 = (1/5)W3\nM7 = Mcopy_cas\nL7 = Lcas
TEXT -1408 0 Left 2 ;W3 = W9\nM3 = Mcopy_cas\nL3 = Lmirr
TEXT -4568 -320 Left 2 ;W9,10 = Wpair\nL9,10 = Lpair
TEXT -4560 -144 Left 2 ;W11 = Wtail\nL11 = Ltail
RECTANGLE Normal -2464 576 -4000 -768 2
RECTANGLE Normal -80 720 -2064 -752 2
RECTANGLE Normal 144 1680 -2064 880 2
RECTANGLE Normal -4288 16 -5488 -768 2
RECTANGLE Normal -5808 704 -7232 -768 2
