Version 4
SHEET 1 5940 1908
WIRE -1936 -560 -1936 -688
WIRE -1840 -480 -1888 -480
WIRE 3312 -480 3200 -480
WIRE 3680 -480 3600 -480
WIRE 3712 -480 3680 -480
WIRE -1936 -416 -1936 -464
WIRE -1840 -416 -1840 -480
WIRE -1840 -416 -1936 -416
WIRE -1936 -368 -1936 -416
WIRE 3152 -352 3152 -464
WIRE 3552 -352 3552 -464
WIRE 3312 -272 3312 -480
WIRE 3312 -272 3200 -272
WIRE 3392 -272 3312 -272
WIRE 3504 -272 3392 -272
WIRE 3152 -176 3152 -256
WIRE 3312 -176 3312 -272
WIRE 3312 -176 3152 -176
WIRE 3552 -176 3552 -256
WIRE 3680 -176 3680 -480
WIRE 3680 -176 3552 -176
WIRE -1936 -128 -1936 -288
WIRE -1824 -128 -1936 -128
WIRE 1040 -112 1040 -160
WIRE 1648 -112 1648 -160
WIRE -1936 -96 -1936 -128
WIRE -1552 -80 -1552 -192
WIRE -1280 -80 -1280 -208
WIRE -1056 -80 -1056 -208
WIRE 3152 -32 3152 -176
WIRE -1824 -16 -1824 -128
WIRE -1824 -16 -1888 -16
WIRE -1456 0 -1504 0
WIRE -1328 0 -1456 0
WIRE -1104 0 -1328 0
WIRE 3552 0 3552 -176
WIRE 1040 32 1040 -16
WIRE 1648 32 1648 -16
WIRE -1552 64 -1552 16
WIRE -1456 64 -1456 0
WIRE -1456 64 -1552 64
WIRE 1040 80 1040 32
WIRE 1648 80 1648 32
WIRE -1280 112 -1280 16
WIRE -1056 112 -1056 16
WIRE -1936 128 -1936 0
WIRE -1808 128 -1936 128
WIRE -1936 176 -1936 128
WIRE -1552 176 -1552 64
WIRE 208 176 208 128
WIRE 480 176 480 128
WIRE 1040 224 1040 176
WIRE 1648 224 1648 176
WIRE 1040 240 1040 224
WIRE 1264 240 1040 240
WIRE 1648 240 1648 224
WIRE 1888 240 1648 240
WIRE -1808 256 -1808 128
WIRE -1808 256 -1888 256
WIRE -1696 256 -1808 256
WIRE -1648 256 -1696 256
WIRE -1600 256 -1648 256
WIRE 1888 256 1888 240
WIRE 1040 272 1040 240
WIRE 1648 272 1648 240
WIRE 208 320 208 272
WIRE 336 320 208 320
WIRE 480 320 480 272
WIRE 480 320 336 320
WIRE 336 368 336 320
WIRE 3296 384 3168 384
WIRE 1040 416 1040 368
WIRE 1296 416 1040 416
WIRE 1648 416 1648 368
WIRE 1936 416 1648 416
WIRE 3696 416 3568 416
WIRE -1648 448 -1648 256
WIRE -1648 448 -1664 448
WIRE -1600 448 -1648 448
WIRE 288 448 32 448
WIRE 1040 448 1040 416
WIRE 1648 448 1648 416
WIRE 3168 448 3168 384
WIRE 3568 448 3568 416
WIRE 1296 464 1296 416
WIRE 1936 464 1936 416
WIRE 3296 528 3296 384
WIRE 3296 528 3216 528
WIRE 3424 528 3296 528
WIRE 3520 528 3424 528
WIRE -1664 624 -1664 448
WIRE -1584 624 -1664 624
WIRE 3168 640 3168 544
WIRE 3568 640 3568 544
WIRE 3296 720 3296 528
WIRE 3296 720 3216 720
WIRE 3696 720 3696 416
WIRE 3696 720 3616 720
WIRE 3744 720 3696 720
WIRE 1824 832 1712 832
WIRE 1936 832 1904 832
WIRE 1952 832 1936 832
WIRE 2208 832 2032 832
WIRE -176 1056 -256 1056
WIRE -96 1056 -176 1056
WIRE -176 1088 -176 1056
WIRE 2048 1104 2048 1040
WIRE 3872 1104 3872 1056
WIRE 3792 1152 3664 1152
WIRE 4112 1152 3952 1152
WIRE 3872 1216 3872 1200
WIRE 3872 1424 3872 1376
WIRE 3792 1472 3664 1472
WIRE 4112 1472 3952 1472
WIRE 3872 1536 3872 1520
FLAG 336 464 0
FLAG 208 224 0
FLAG 480 224 0
FLAG 336 416 0
FLAG -1936 272 0
FLAG -1936 224 0
FLAG 208 1152 0
FLAG 208 1072 Vdd
FLAG -176 1168 0
FLAG -336 1056 Vip
FLAG -16 1056 Vim
FLAG 160 256 Vip
FLAG 528 256 Vim
FLAG 1040 -160 Vdd
FLAG 1040 544 0
FLAG 1040 496 0
FLAG 1040 320 0
FLAG 1040 32 X
FLAG 1040 128 Vdd
FLAG 992 352 Vb1
FLAG 992 160 Vb2
FLAG 1040 -64 Vdd
FLAG 1648 -160 Vdd
FLAG 1648 544 0
FLAG 1648 496 0
FLAG 1648 320 0
FLAG 1648 32 Y
FLAG 1648 128 Vdd
FLAG 1600 352 Vb1
FLAG 1600 160 Vb2
FLAG 1648 -64 Vdd
FLAG 1696 528 vm2
FLAG 1088 528 vm2
FLAG 1600 -32 vm3
FLAG 992 -32 vm3
FLAG 1648 224 Vop
FLAG 1040 224 Vom
FLAG 208 128 X
FLAG 480 128 Y
FLAG 1472 1040 0
FLAG 1472 960 Vocm_target
FLAG -1696 256 vm1
FLAG 1296 560 0
FLAG 1296 512 0
FLAG 1344 544 vctr
FLAG 1936 560 0
FLAG 1936 512 0
FLAG 1984 544 vctr
FLAG 1264 304 0
FLAG 1888 320 0
FLAG 32 448 vm1
FLAG -1552 272 0
FLAG -1552 224 0
FLAG -1552 -32 Vdd
FLAG -1552 -192 Vdd
FLAG -1280 -32 Vdd
FLAG -1280 -208 Vdd
FLAG -1280 112 a
FLAG -1552 464 0
FLAG -1552 416 0
FLAG -1552 368 c
FLAG -1936 -688 Vdd
FLAG -1936 -48 0
FLAG -1936 -512 Vdd
FLAG 1712 912 0
FLAG 1664 896 0
FLAG 2208 912 0
FLAG 2256 896 0
FLAG 1936 832 Voc
FLAG 2096 1120 Voc
FLAG 2048 1184 0
FLAG 3168 736 0
FLAG 3168 688 0
FLAG 3168 496 0
FLAG 3568 736 0
FLAG 3568 688 0
FLAG 3744 720 vm2
FLAG 3568 496 0
FLAG 3424 528 Vb1
FLAG 3152 -512 Vdd
FLAG 3152 -560 Vdd
FLAG 3152 -304 Vdd
FLAG 3552 -512 Vdd
FLAG 3552 -560 Vdd
FLAG 3552 -304 Vdd
FLAG 3712 -480 vm3
FLAG 3392 -272 Vb2
FLAG 3168 384 a
FLAG 3568 416 b
FLAG 3152 -32 c
FLAG 3552 0 d
FLAG -1536 640 0
FLAG -1536 592 0
FLAG -1536 544 d
FLAG -1056 -32 Vdd
FLAG -1056 -208 Vdd
FLAG -1056 112 b
FLAG 2848 1376 0
FLAG 2848 1296 CK_PHI2
FLAG 2848 1664 0
FLAG 2848 1584 CK_PHI1
FLAG 3872 1216 0
FLAG 3872 1056 Vdd
FLAG 3664 1152 CK_PHI2
FLAG 4112 1152 CK_PHI2_BAR
FLAG 3872 1536 0
FLAG 3872 1376 Vdd
FLAG 3664 1472 CK_PHI1
FLAG 4112 1472 CK_PHI1_BAR
FLAG 4800 1280 CK_PHI2
FLAG 4800 1216 CK_PHI1
FLAG 4800 1312 CK_PHI2_BAR
FLAG 4800 1248 CK_PHI1_BAR
FLAG 5072 1216 Vdd
FLAG 4752 1376 Vm2
FLAG 5088 1344 vctr
FLAG 4752 1408 Vocm_target
FLAG 4752 1440 Vom
FLAG 4752 1472 Vop
FLAG 1664 848 Vom
FLAG 2256 848 Vop
FLAG 2048 1040 vctr
FLAG 2096 1168 Vocm_target
SYMBOL nmos4 160 176 R0
SYMATTR InstName M1
SYMATTR Value nmos_3p3
SYMATTR Value2 l='Lpair' w='Wpair' m=1
SYMBOL nmos4 528 176 M0
SYMATTR InstName M2
SYMATTR Value nmos_3p3
SYMATTR Value2 l='Lpair' w='Wpair' m=1
SYMBOL nmos4 288 368 R0
SYMATTR InstName M3
SYMATTR Value nmos_3p3
SYMATTR Value2 l='Ltail' w='Wtail/Mtail' m=Mtail
SYMBOL nmos4 -1888 176 M0
SYMATTR InstName M4
SYMATTR Value nmos_3p3
SYMATTR Value2 l='Ltail' w='Wtail/Mtail' m=1
SYMBOL voltage 208 1056 R0
WINDOW 123 24 124 Left 2
WINDOW 39 0 0 Left 0
SYMATTR InstName V1
SYMATTR Value 3.3
SYMBOL voltage -176 1072 R0
WINDOW 123 24 124 Left 2
WINDOW 39 0 0 Left 0
SYMATTR InstName V2
SYMATTR Value {Vicm}
SYMBOL voltage -352 1056 R270
WINDOW 0 32 56 VTop 2
WINDOW 3 -30 58 VBottom 2
WINDOW 123 -58 58 VBottom 2
WINDOW 39 0 0 Left 0
SYMATTR InstName V3
SYMATTR Value {vid/2}
SYMATTR Value2 AC 0.5
SYMBOL voltage -112 1056 R270
WINDOW 0 32 56 VTop 2
WINDOW 3 -32 56 VBottom 2
WINDOW 123 -60 56 VBottom 2
WINDOW 39 0 0 Left 0
SYMATTR InstName V4
SYMATTR Value {vid/2}
SYMATTR Value2 AC 0.5
SYMBOL pmos4 992 -112 R0
SYMATTR InstName M5
SYMATTR Value pmos_3p3
SYMATTR Value2 l='Lmirr' w='W5/3' m=3
SYMBOL pmos4 992 80 R0
SYMATTR InstName M6
SYMATTR Value pmos_3p3
SYMATTR Value2 l='Lcas' w='W3/2' m=2
SYMBOL nmos4 992 272 R0
SYMATTR InstName M7
SYMATTR Value nmos_3p3
SYMATTR Value2 l='Lcas' w='W7'
SYMBOL nmos4 1088 448 M0
SYMATTR InstName M8
SYMATTR Value nmos_3p3
SYMATTR Value2 l='Lmirr' w='a*W9'
SYMBOL pmos4 1600 -112 R0
SYMATTR InstName M10
SYMATTR Value pmos_3p3
SYMATTR Value2 l='Lmirr' w='W5/3' m=3
SYMBOL pmos4 1600 80 R0
SYMATTR InstName M11
SYMATTR Value pmos_3p3
SYMATTR Value2 l='Lcas' w='W3/2' m=2
SYMBOL nmos4 1600 272 R0
SYMATTR InstName M12
SYMATTR Value nmos_3p3
SYMATTR Value2 l='Lcas' w='W7'
SYMBOL nmos4 1696 448 M0
SYMATTR InstName M13
SYMATTR Value nmos_3p3
SYMATTR Value2 l='Lmirr' w='a*W9'
SYMBOL voltage 1472 944 R0
WINDOW 123 0 0 Left 0
WINDOW 39 0 0 Left 0
SYMATTR InstName V7
SYMATTR Value 1.65
SYMBOL nmos4 1344 464 M0
SYMATTR InstName M15
SYMATTR Value nmos_3p3
SYMATTR Value2 l='Lmirr' w='(1-a)*W9'
SYMBOL nmos4 1984 464 M0
SYMATTR InstName M16
SYMATTR Value nmos_3p3
SYMATTR Value2 l='Lmirr' w='(1-a)*W9'
SYMBOL cap 1248 240 R0
SYMATTR InstName C1
SYMATTR Value 100f
SYMBOL cap 1872 256 R0
SYMATTR InstName C2
SYMATTR Value 100f
SYMBOL current -1936 -368 R0
WINDOW 123 0 0 Left 0
WINDOW 39 0 0 Left 0
SYMATTR InstName I1
SYMATTR Value 500n
SYMBOL nmos4 -1600 176 R0
SYMATTR InstName M9
SYMATTR Value nmos_3p3
SYMATTR Value2 l='Ltail' w='Wtail/Mtail' m=Mp
SYMBOL pmos4 -1504 -80 M0
SYMATTR InstName M17
SYMATTR Value pmos_3p3
SYMATTR Value2 l='Lcopy' w='Wcopy_p'
SYMBOL pmos4 -1328 -80 R0
SYMATTR InstName M18
SYMATTR Value pmos_3p3
SYMATTR Value2 l='Lcopy' w='Wcopy_p'
SYMBOL nmos4 -1600 368 R0
SYMATTR InstName M27
SYMATTR Value nmos_3p3
SYMATTR Value2 l='Ltail' w='Wtail/Mtail' m=Mn
SYMBOL nmos4 -1888 -96 M0
SYMATTR InstName M29
SYMATTR Value nmos_3p3
SYMATTR Value2 l=4.48u w=2.64u m=3
SYMBOL pmos4 -1888 -560 M0
SYMATTR InstName M34
SYMATTR Value pmos_3p3
SYMATTR Value2 l=4.48u w='Wcopy_p'
SYMBOL res 1920 816 R90
WINDOW 0 0 56 VBottom 2
WINDOW 3 32 56 VTop 2
SYMATTR InstName R1
SYMATTR Value 1k
SYMBOL res 2048 816 R90
WINDOW 0 0 56 VBottom 2
WINDOW 3 32 56 VTop 2
SYMATTR InstName R2
SYMATTR Value 1k
SYMBOL e 1712 816 R0
SYMATTR InstName E1
SYMATTR Value 1
SYMBOL e 2208 816 M0
SYMATTR InstName E2
SYMATTR Value 1
SYMBOL e 2048 1088 M0
SYMATTR InstName E3
SYMATTR Value 50
SYMBOL nmos4 3216 640 M0
SYMATTR InstName M24
SYMATTR Value nmos_3p3
SYMATTR Value2 l='Lmirr' w='(1/3)*W9' m=1
SYMBOL nmos4 3216 448 M0
SYMATTR InstName M25
SYMATTR Value nmos_3p3
SYMATTR Value2 l='Lcas' w='W7' m=1
SYMBOL nmos4 3616 640 M0
SYMATTR InstName M26
SYMATTR Value nmos_3p3
SYMATTR Value2 l='Lmirr' w='W9' m=1
SYMBOL nmos4 3520 448 R0
SYMATTR InstName M28
SYMATTR Value nmos_3p3
SYMATTR Value2 l='Lcas' w='W7' m=1
SYMBOL pmos4 3200 -560 M0
SYMATTR InstName M30
SYMATTR Value pmos_3p3
SYMATTR Value2 l='Lmirr' w='(1/3)*W5/3'
SYMBOL pmos4 3200 -352 M0
SYMATTR InstName M31
SYMATTR Value pmos_3p3
SYMATTR Value2 l='Lcas' w='W3/2' m=1
SYMBOL pmos4 3600 -560 M0
SYMATTR InstName M35
SYMATTR Value pmos_3p3
SYMATTR Value2 l='Lmirr' w='W5/3' m=1
SYMBOL pmos4 3504 -352 R0
SYMATTR InstName M36
SYMATTR Value pmos_3p3
SYMATTR Value2 l='Lcas' w='W3/2' m=1
SYMBOL nmos4 -1584 544 R0
SYMATTR InstName M37
SYMATTR Value nmos_3p3
SYMATTR Value2 l='Ltail' w='Wtail/Mtail' m=Mn
SYMBOL pmos4 -1104 -80 R0
SYMATTR InstName M38
SYMATTR Value pmos_3p3
SYMATTR Value2 l='Lcopy' w='Wcopy_p'
SYMBOL CS_CMFB 4928 1344 R0
SYMATTR InstName X1
SYMBOL voltage 2848 1280 R0
SYMATTR InstName V5
SYMATTR Value PULSE(0 3.3 0 100p 100p 50n 100n)
SYMBOL voltage 2848 1568 R0
SYMATTR InstName V6
SYMATTR Value PULSE(0 3.3 62.5n 100p 100p 25n 100n)
SYMBOL INVx1 3872 1152 R0
SYMATTR InstName X2
SYMBOL INVx1 3872 1472 R0
SYMATTR InstName X3
TEXT -136 -200 Left 2 !.param Wpair=45.2u Lpair=1.12u
TEXT -136 -168 Left 2 !.param Wtail=2.64u Ltail=4.48u Mtail=4
TEXT -1624 1112 Left 2 !.param vid=0 Vicm=1.65
TEXT -1648 1184 Left 2 !.inc ..\\..\\gf180\\cmos_tt.txt
TEXT 1064 -256 Left 2 !.op
TEXT 616 -528 Left 2 !.param W5=22.99u W3=7.92u W7=1.92u W9=3.53u Lmirr=2.24u Lcas=0.84u
TEXT 616 -480 Left 2 !.param Vocm_target=1.65
TEXT 624 -400 Left 2 ;.tran 20u
TEXT 616 -440 Left 2 !.param a=0.7
TEXT -256 1400 Left 2 ;.ac dec 1000 1 10G
TEXT -256 1440 Left 2 ;.dc param vid -2m 2m 10u
TEXT -1616 1032 Left 2 !.meas dc_gain max mag(V(vop)-V(vom))\n.meas ac bw find mag(V(vop)-V(vom)) when mag(V(vop)-V(vom))=dc_gain/sqrt(2)
TEXT -1552 -368 Left 2 !.param Lcopy=2.24u Wcopy_p=34.48u
TEXT -1568 -432 Left 2 ;Master CURRENT BRANCH
TEXT -176 -232 Left 2 ;INPUT DIFFERENTIAL PAIR
TEXT -256 1480 Left 2 ;.noise V(vop,vom) V3 dec 1000 1 200k
TEXT -256 1528 Left 2 !.meas noise VNOISE_RMS integ V(onoise)
TEXT -592 280 Left 2 !;.ic V(Vom)=1.65 V(Vop)=1.65
TEXT -1552 -344 Left 2 !.param Mn=2 Mp=4
TEXT 4088 1696 Left 2 !.measure tran iavg AVG i(V1) from=12u to 13u\n.measure tran iclk_phi2_avg AVG i(V5) from=12u to=13u\n.measure tran iclk_phi1_avg AVG i(V6) from=12u to=13u\n \n.measure tran pclk2 PARAM='-iclk_phi2_avg*3.3'\n.measure tran pclk1 PARAM='-iclk_phi1_avg*3.3'\n.measure tran pavg PARAM='-iavg*3.3'\n.measure tran ptot PARAM='pavg+pclk1+pclk2'
