Version 4
SHEET 1 880 2456
WIRE -1328 -448 -1408 -448
WIRE -1296 -448 -1328 -448
WIRE -6384 -432 -6384 -560
WIRE -608 -400 -608 -432
WIRE -512 -400 -608 -400
WIRE -608 -384 -608 -400
WIRE -6288 -352 -6336 -352
WIRE -1456 -320 -1456 -432
WIRE -512 -304 -512 -400
WIRE -512 -304 -560 -304
WIRE -6384 -288 -6384 -336
WIRE -6288 -288 -6288 -352
WIRE -6288 -288 -6384 -288
WIRE -608 -256 -608 -288
WIRE -608 -256 -752 -256
WIRE -6384 -240 -6384 -288
WIRE -1648 -240 -1696 -240
WIRE -1504 -240 -1648 -240
WIRE -608 -240 -608 -256
WIRE -3824 -176 -3824 -224
WIRE -3216 -176 -3216 -224
WIRE -512 -160 -512 -304
WIRE -512 -160 -560 -160
WIRE -1456 -144 -1456 -224
WIRE -1328 -144 -1328 -448
WIRE -1328 -144 -1456 -144
WIRE -608 -80 -608 -144
WIRE -480 -80 -608 -80
WIRE -6000 -64 -6000 -176
WIRE -5728 -64 -5728 -192
WIRE -6384 -48 -6384 -160
WIRE -6272 -48 -6384 -48
WIRE -608 -48 -608 -80
WIRE -3824 -32 -3824 -80
WIRE -3216 -32 -3216 -80
WIRE -6384 -16 -6384 -48
WIRE -5904 16 -5952 16
WIRE -5776 16 -5904 16
WIRE -3824 16 -3824 -32
WIRE -3216 16 -3216 -32
WIRE -1456 32 -1456 -144
WIRE -752 32 -752 -256
WIRE -752 32 -880 32
WIRE -656 32 -752 32
WIRE -6272 64 -6272 -48
WIRE -6272 64 -6336 64
WIRE -6000 80 -6000 32
WIRE -5904 80 -5904 16
WIRE -5904 80 -6000 80
WIRE -4656 112 -4656 64
WIRE -4384 112 -4384 64
WIRE -1344 112 -1408 112
WIRE -5728 128 -5728 32
WIRE -6384 144 -6384 80
WIRE -6256 144 -6384 144
WIRE -608 144 -608 48
WIRE -3824 160 -3824 112
WIRE -3216 160 -3216 112
WIRE -3824 176 -3824 160
WIRE -3600 176 -3824 176
WIRE -3216 176 -3216 160
WIRE -2976 176 -3216 176
WIRE -1648 176 -1648 -240
WIRE -1456 176 -1456 128
WIRE -1456 176 -1648 176
WIRE -6384 192 -6384 144
WIRE -6000 192 -6000 80
WIRE -2976 192 -2976 176
WIRE -3824 208 -3824 176
WIRE -3216 208 -3216 176
WIRE -1456 208 -1456 176
WIRE -480 224 -480 -80
WIRE -480 224 -560 224
WIRE -432 224 -480 224
WIRE -4656 256 -4656 208
WIRE -4528 256 -4656 256
WIRE -4384 256 -4384 208
WIRE -4384 256 -4528 256
WIRE -6256 272 -6256 144
WIRE -6256 272 -6336 272
WIRE -6144 272 -6256 272
WIRE -6096 272 -6144 272
WIRE -6048 272 -6096 272
WIRE -1344 288 -1344 112
WIRE -1344 288 -1408 288
WIRE -4528 304 -4528 256
WIRE -1456 336 -1456 304
WIRE -1344 336 -1344 288
WIRE -1344 336 -1456 336
WIRE -3824 352 -3824 304
WIRE -3568 352 -3824 352
WIRE -3216 352 -3216 304
WIRE -2928 352 -3216 352
WIRE -4576 384 -4832 384
WIRE -3824 384 -3824 352
WIRE -3216 384 -3216 352
WIRE -1456 384 -1456 336
WIRE -3568 400 -3568 352
WIRE -2928 400 -2928 352
WIRE -6096 464 -6096 272
WIRE -6048 464 -6096 464
WIRE -5040 992 -5120 992
WIRE -4960 992 -5040 992
WIRE -5040 1024 -5040 992
WIRE -1168 1072 -1168 1024
WIRE -1248 1120 -1376 1120
WIRE -928 1120 -1088 1120
WIRE -1168 1184 -1168 1168
WIRE -3296 1296 -3408 1296
WIRE -3184 1296 -3216 1296
WIRE -3168 1296 -3184 1296
WIRE -2912 1296 -3088 1296
WIRE -1168 1392 -1168 1344
WIRE -1248 1440 -1376 1440
WIRE -928 1440 -1088 1440
WIRE -1168 1504 -1168 1488
WIRE -3072 1568 -3072 1504
FLAG -1456 -480 Vdd
FLAG -1456 -528 Vdd
FLAG -1456 -272 Vdd
FLAG -1296 -448 vm3
FLAG -1696 -240 Vb2
FLAG -1456 384 c
FLAG -608 240 0
FLAG -608 192 0
FLAG -432 224 vm2
FLAG -608 0 0
FLAG -880 32 Vb1
FLAG -608 -432 a
FLAG -608 -192 0
FLAG -608 -336 0
FLAG -1456 80 Vdd
FLAG -1456 256 Vdd
FLAG -4528 400 0
FLAG -4656 160 0
FLAG -4384 160 0
FLAG -4528 352 0
FLAG -6384 288 0
FLAG -6384 240 0
FLAG -4656 1088 0
FLAG -4656 1008 Vdd
FLAG -5040 1104 0
FLAG -5200 992 Vip
FLAG -4880 992 Vim
FLAG -4704 192 Vip
FLAG -4336 192 Vim
FLAG -3824 -224 Vdd
FLAG -3824 480 0
FLAG -3824 432 0
FLAG -3824 256 0
FLAG -3824 -32 X
FLAG -3824 64 Vdd
FLAG -3872 288 Vb1
FLAG -3872 96 Vb2
FLAG -3824 -128 Vdd
FLAG -3216 -224 Vdd
FLAG -3216 480 0
FLAG -3216 432 0
FLAG -3216 256 0
FLAG -3216 -32 Y
FLAG -3216 64 Vdd
FLAG -3264 288 Vb1
FLAG -3264 96 Vb2
FLAG -3216 -128 Vdd
FLAG -3168 464 vm2
FLAG -3776 464 vm2
FLAG -3264 -96 vm3
FLAG -3872 -96 vm3
FLAG -3216 160 Vop
FLAG -3824 160 Vom
FLAG -4656 64 X
FLAG -4384 64 Y
FLAG -3392 976 0
FLAG -3392 896 Vocm_target
FLAG -6144 272 vm1
FLAG -3568 496 0
FLAG -3568 448 0
FLAG -3520 480 vctr
FLAG -2928 496 0
FLAG -2928 448 0
FLAG -2880 480 vctr
FLAG -3600 240 0
FLAG -2976 256 0
FLAG -4832 384 vm1
FLAG -6000 288 0
FLAG -6000 240 0
FLAG -6000 -16 Vdd
FLAG -6000 -176 Vdd
FLAG -5728 -16 Vdd
FLAG -5728 -192 Vdd
FLAG -5728 128 a
FLAG -6000 480 0
FLAG -6000 432 0
FLAG -6000 384 c
FLAG -6384 -560 Vdd
FLAG -6384 32 0
FLAG -6384 -384 Vdd
FLAG -2192 1344 0
FLAG -2192 1264 CK_PHI2
FLAG -2192 1632 0
FLAG -2192 1552 CK_PHI1
FLAG -1168 1184 0
FLAG -1168 1024 Vdd
FLAG -1376 1120 CK_PHI2
FLAG -928 1120 CK_PHI2_BAR
FLAG -1168 1504 0
FLAG -1168 1344 Vdd
FLAG -1376 1440 CK_PHI1
FLAG -928 1440 CK_PHI1_BAR
FLAG -240 1248 CK_PHI2
FLAG -240 1184 CK_PHI1
FLAG -240 1280 CK_PHI2_BAR
FLAG -240 1216 CK_PHI1_BAR
FLAG 32 1184 Vdd
FLAG -288 1360 Vm2
FLAG 112 1312 vctr
FLAG -288 1392 Vocm_target
FLAG -288 1424 Vom
FLAG -288 1456 Vop
FLAG -3408 1376 0
FLAG -3456 1360 0
FLAG -2912 1376 0
FLAG -2864 1360 0
FLAG -3184 1296 Voc
FLAG -3024 1584 Voc
FLAG -3072 1648 0
FLAG -3456 1312 Vom
FLAG -2864 1312 Vop
FLAG -3072 1504 vctr
FLAG -3024 1632 Vocm_target
DATAFLAG -4672 384 ""
DATAFLAG -1648 -240 ""
DATAFLAG -1328 -448 ""
DATAFLAG -800 32 ""
DATAFLAG -496 224 ""
DATAFLAG -3728 176 ""
DATAFLAG -4512 256 ""
DATAFLAG -3664 352 ""
DATAFLAG -3344 192 "Id(M18)"
DATAFLAG -3360 -128 "Id(M17)"
DATAFLAG -4368 352 "Id(M11)"
DATAFLAG -4784 80 "Id(M9)"
DATAFLAG -4288 64 "Id(M9)"
DATAFLAG -3744 -16 "V(X)"
DATAFLAG -3344 384 "Id(M20)"
DATAFLAG -2816 384 "Id(M22)"
DATAFLAG -6256 224 ""
DATAFLAG -5728 96 "Id(M25)"
DATAFLAG -6000 352 "Id(M26)"
DATAFLAG -608 -464 "Id(M6)"
DATAFLAG -1456 432 "Id(M6)"
SYMBOL pmos4 -1408 -528 M0
SYMATTR InstName M1
SYMATTR Value pmos_3p3
SYMATTR Value2 l='Lmirr' w='W5' m=Mcopy_fold
SYMBOL pmos4 -1504 -320 R0
SYMATTR InstName M2
SYMATTR Value pmos_3p3
SYMATTR Value2 l='Lcas' w='W3' m=Mcopy_cas
SYMBOL nmos4 -560 144 M0
SYMATTR InstName M3
SYMATTR Value nmos_3p3
SYMATTR Value2 l='Lmirr' w='W9' m=Mcopy_cas
SYMBOL nmos4 -656 -48 R0
SYMATTR InstName M4
SYMATTR Value nmos_3p3
SYMATTR Value2 l='Lcas' w='W7' m=Mcopy_cas
SYMBOL nmos4 -560 -240 M0
SYMATTR InstName M5
SYMATTR Value nmos_3p3
SYMATTR Value2 l='Lcas' w='(1/6)*W7' m=Mcopy_cas
SYMBOL nmos4 -560 -384 M0
SYMATTR InstName M6
SYMATTR Value nmos_3p3
SYMATTR Value2 l='Lcas' w='W7' m=Mcopy_cas
SYMBOL pmos4 -1408 32 M0
SYMATTR InstName M7
SYMATTR Value pmos_3p3
SYMATTR Value2 l='Lcas' w='(1/5)*W3' m=Mcopy_cas
SYMBOL pmos4 -1408 208 M0
SYMATTR InstName M8
SYMATTR Value pmos_3p3
SYMATTR Value2 l='Lcas' w='W3' m=Mcopy_cas
SYMBOL nmos4 -4704 112 R0
SYMATTR InstName M9
SYMATTR Value nmos_3p3
SYMATTR Value2 l='Lpair' w='Wpair' m=1
SYMBOL nmos4 -4336 112 M0
SYMATTR InstName M10
SYMATTR Value nmos_3p3
SYMATTR Value2 l='Lpair' w='Wpair' m=1
SYMBOL nmos4 -4576 304 R0
SYMATTR InstName M11
SYMATTR Value nmos_3p3
SYMATTR Value2 l='Ltail' w='Wtail' m=1
SYMBOL nmos4 -6336 192 M0
SYMATTR InstName M12
SYMATTR Value nmos_3p3
SYMATTR Value2 l='Ltail' w='Wtail' m=Mcopy_tail
SYMBOL voltage -4656 992 R0
WINDOW 123 24 124 Left 2
WINDOW 39 0 0 Left 0
SYMATTR Value2 AC 1
SYMATTR InstName V1
SYMATTR Value 3.3
SYMBOL voltage -5040 1008 R0
WINDOW 123 24 124 Left 2
WINDOW 39 0 0 Left 0
SYMATTR Value2 AC 0
SYMATTR InstName V2
SYMATTR Value {Vicm}
SYMBOL voltage -5216 992 R270
WINDOW 0 32 56 VTop 2
WINDOW 3 -30 58 VBottom 2
WINDOW 123 -58 58 VBottom 2
WINDOW 39 0 0 Left 0
SYMATTR InstName V3
SYMATTR Value {vid/2}
SYMATTR Value2 AC 0
SYMBOL voltage -4976 992 R270
WINDOW 0 32 56 VTop 2
WINDOW 3 -32 56 VBottom 2
WINDOW 123 -60 56 VBottom 2
WINDOW 39 0 0 Left 0
SYMATTR InstName V4
SYMATTR Value {vid/2}
SYMATTR Value2 AC 0
SYMBOL pmos4 -3872 -176 R0
SYMATTR InstName M13
SYMATTR Value pmos_3p3
SYMATTR Value2 l='Lmirr' w='W5' m=1
SYMBOL pmos4 -3872 16 R0
SYMATTR InstName M14
SYMATTR Value pmos_3p3
SYMATTR Value2 l='Lcas' w='W3' m=1
SYMBOL nmos4 -3872 208 R0
SYMATTR InstName M15
SYMATTR Value nmos_3p3
SYMATTR Value2 l='Lcas' w='W7'
SYMBOL nmos4 -3776 384 M0
SYMATTR InstName M16
SYMATTR Value nmos_3p3
SYMATTR Value2 l='Lmirr' w='a*W9'
SYMBOL pmos4 -3264 -176 R0
SYMATTR InstName M17
SYMATTR Value pmos_3p3
SYMATTR Value2 l='Lmirr' w='W5' m=1
SYMBOL pmos4 -3264 16 R0
SYMATTR InstName M18
SYMATTR Value pmos_3p3
SYMATTR Value2 l='Lcas' w='W3' m=1
SYMBOL nmos4 -3264 208 R0
SYMATTR InstName M19
SYMATTR Value nmos_3p3
SYMATTR Value2 l='Lcas' w='W7'
SYMBOL nmos4 -3168 384 M0
SYMATTR InstName M20
SYMATTR Value nmos_3p3
SYMATTR Value2 l='Lmirr' w='a*W9'
SYMBOL voltage -3392 880 R0
WINDOW 123 0 0 Left 0
WINDOW 39 0 0 Left 0
SYMATTR InstName V5
SYMATTR Value 1.65
SYMBOL nmos4 -3520 400 M0
SYMATTR InstName M21
SYMATTR Value nmos_3p3
SYMATTR Value2 l='Lmirr' w='(1-a)*W9'
SYMBOL nmos4 -2880 400 M0
SYMATTR InstName M22
SYMATTR Value nmos_3p3
SYMATTR Value2 l='Lmirr' w='(1-a)*W9'
SYMBOL cap -3616 176 R0
SYMATTR InstName C1
SYMATTR Value 100f
SYMBOL cap -2992 192 R0
SYMATTR InstName C2
SYMATTR Value 100f
SYMBOL nmos4 -6048 192 R0
SYMATTR InstName M23
SYMATTR Value nmos_3p3
SYMATTR Value2 l='Ltail' w='Wtail' m=Mcopy_tail
SYMBOL pmos4 -5952 -64 M0
SYMATTR InstName M24
SYMATTR Value pmos_3p3
SYMATTR Value2 l='Lcopy' w=4.48u
SYMBOL pmos4 -5776 -64 R0
SYMATTR InstName M25
SYMATTR Value pmos_3p3
SYMATTR Value2 l='Lcopy' w=4.48u
SYMBOL nmos4 -6048 384 R0
SYMATTR InstName M26
SYMATTR Value nmos_3p3
SYMATTR Value2 l='Ltail' w='Wtail' m=Mcopy_tail
SYMBOL nmos4 -6336 -16 M0
SYMATTR InstName M27
SYMATTR Value nmos_3p3
SYMATTR Value2 l=4.48u w=2.64u m=3
SYMBOL pmos4 -6336 -432 M0
SYMATTR InstName M28
SYMATTR Value pmos_3p3
SYMATTR Value2 l=4.48u w='Wcopy_p'
SYMBOL CS_CMFB -112 1312 R0
SYMATTR InstName X1
SYMBOL voltage -2192 1248 R0
SYMATTR InstName V6
SYMATTR Value PULSE(0 3.3 0 100p 100p 50n 100n)
SYMBOL voltage -2192 1536 R0
SYMATTR InstName V7
SYMATTR Value PULSE(0 3.3 62.5n 100p 100p 25n 100n)
SYMBOL INVx1 -1168 1120 R0
SYMATTR InstName X2
SYMBOL INVx1 -1168 1440 R0
SYMATTR InstName X3
SYMBOL res -3200 1280 R90
WINDOW 0 0 56 VBottom 2
WINDOW 3 32 56 VTop 2
SYMATTR InstName R1
SYMATTR Value 1k
SYMBOL res -3072 1280 R90
WINDOW 0 0 56 VBottom 2
WINDOW 3 32 56 VTop 2
SYMATTR InstName R2
SYMATTR Value 1k
SYMBOL e -3408 1280 R0
SYMATTR InstName E1
SYMATTR Value 1
SYMBOL e -2912 1280 M0
SYMATTR InstName E2
SYMATTR Value 1
SYMBOL e -3072 1552 M0
SYMATTR InstName E3
SYMATTR Value 50
SYMBOL res -6400 -256 R0
SYMATTR InstName R3
SYMATTR Value 45833.33
TEXT -5008 -136 Left 2 !.param Wpair=45.2u Lpair=1.12u
TEXT -5008 -104 Left 2 !.param Wtail=2.64u Ltail=4.48u
TEXT -6488 1048 Left 2 !.param vid=0 Vicm=1.65
TEXT -6512 1120 Left 2 !.inc ..\\..\\gf180\\cmos_tt.txt
TEXT -3800 -320 Left 2 !.op
TEXT -3792 -552 Left 2 !.param W5=22.99u W3=7.92u W7=1.92u W9=3.53u Lmirr=2.24u Lcas=0.84u
TEXT -3792 -520 Left 2 !.param Vocm_target=1.65
TEXT -3792 -456 Left 2 ;.tran 10u
TEXT -3792 -488 Left 2 !.param a=0.7
TEXT -5120 1336 Left 2 ;.ac dec 1000 1 10G
TEXT -5120 1376 Left 2 ;.dc param vid -40m 40m 100u
TEXT -6480 968 Left 2 !.meas dc_gain max mag(V(vop)-V(vom))\n.meas ac bw find mag(V(vop)-V(vom)) when mag(V(vop)-V(vom))=dc_gain/sqrt(2)
TEXT -6224 -488 Left 2 !.param Lcopy=4.48u Wcopy_p=35.91u
TEXT -6288 -624 Left 2 ;Master CURRENT BRANCH\n- M12 copies current to tail transistor. (6uA -> 2uA)\n- M26 copies current to cascode NMOS current mirrors. (6uA -> 6uA)\n- M24, M25 copies current to cascode PMOS. (6uA -> 6uA)
TEXT -5048 -168 Left 2 ;INPUT DIFFERENTIAL PAIR
TEXT -5120 1416 Left 2 ;.noise V(vop,vom) V3 dec 1000 1 20k
TEXT -5120 1464 Left 2 !.meas noise VNOISE_RMS integ V(onoise)\n.meas DC vo_swing FIND V(vop,vom) WHEN deriv(V(vop,vom))=500\n.meas ac av_dc_dm AVG V(vop,vom) from=1 to=10
TEXT -6224 -464 Left 2 !.param Mn=2 Mp=4 Mcopy_tail=3
TEXT -2128 -400 Left 2 !.param Mcopy_cas=3 Mcopy_fold=2
TEXT -2152 -496 Left 2 ;CURRENT MIRROR FOR CASCODE BRANCH\n- Mcopy_cas: 6uA -> 2uA\n- Mcopy_fold: 6uA -> 3uA
TEXT -2072 464 Left 2 ;COPIES CURRENT TO PMOS CASCODE BRANCH
TEXT -976 416 Left 2 ;COPIES CURRENT TO NMOS CASCODE BRANCH
TEXT -952 1664 Left 2 !.measure tran iavg AVG i(V1) from=4u to=5u\n.measure tran iclk_phi2_avg AVG i(V6) from=4u to=5u\n.measure tran iclk_phi1_avg AVG i(V7) from=4u to=5u\n \n.measure tran pclk2 PARAM='-iclk_phi2_avg*3.3'\n.measure tran pclk1 PARAM='-iclk_phi1_avg*3.3'\n.measure tran pavg PARAM='-iavg*3.3'\n.measure tran ptot PARAM='pavg+pclk1+pclk2'
TEXT -3816 -592 Left 2 ;OUTPUT CASCODE BRANCH
