Version 4.1
SHEET 1 3508 1548
WIRE 2016 -256 1984 -256
WIRE 1440 -240 1408 -240
WIRE 2016 -240 2016 -256
WIRE 2608 -240 2576 -240
WIRE 1440 -224 1440 -240
WIRE 2608 -224 2608 -240
WIRE 2128 -192 2096 -192
WIRE 1552 -176 1520 -176
WIRE 2720 -176 2688 -176
WIRE 2016 -128 2016 -144
WIRE 2016 -128 1984 -128
WIRE 1440 -112 1440 -128
WIRE 1440 -112 1408 -112
WIRE 2608 -112 2608 -128
WIRE 2608 -112 2576 -112
WIRE 1440 240 1408 240
WIRE 1440 256 1440 240
WIRE 2672 256 2640 256
WIRE 2672 272 2672 256
WIRE 1552 304 1520 304
WIRE 2784 320 2752 320
WIRE 1440 368 1440 352
WIRE 1440 368 1408 368
WIRE 2672 384 2672 368
WIRE 2672 384 2640 384
WIRE 2128 768 2096 768
WIRE 2128 784 2128 768
WIRE 2240 832 2208 832
WIRE 2128 896 2128 880
WIRE 2128 896 2096 896
FLAG 1264 -128 0
FLAG 1856 -128 0
FLAG 2096 -592 Vdd
FLAG 2096 -512 0
FLAG 1264 -224 Vdd
FLAG 1856 -256 Vdd
FLAG 2272 -592 A
FLAG 2272 -512 0
FLAG 1264 -192 A
FLAG 1744 -224 A
FLAG 1264 -160 0
FLAG 1744 -160 0
FLAG 1552 -176 pseudo0_2
FLAG 1408 -240 Vdd
FLAG 1408 -112 0
FLAG 1984 -256 Vdd
FLAG 1984 -128 0
FLAG 2128 -192 normal0_2
FLAG 2432 -144 0
FLAG 2432 -240 Vdd
FLAG 2432 -208 A
FLAG 2432 -176 0
FLAG 2720 -176 pseudo0_3
FLAG 2576 -240 Vdd
FLAG 2576 -112 0
FLAG 3072 -192 normal0_3
FLAG 2432 -112 0
FLAG 2976 -160 0
FLAG 2976 -256 Vdd
FLAG 2976 -224 A
FLAG 2976 -192 0
FLAG 2976 -128 0
FLAG 1264 320 0
FLAG 1264 224 Vdd
FLAG 1264 256 A
FLAG 1264 288 0
FLAG 1552 304 pseudo0_4
FLAG 1408 240 Vdd
FLAG 1408 368 0
FLAG 1888 304 normal0_4
FLAG 2496 320 0
FLAG 2496 224 Vdd
FLAG 2496 256 A
FLAG 2496 288 0
FLAG 2784 320 pseudo0_5
FLAG 2640 256 Vdd
FLAG 2640 384 0
FLAG 3088 320 normal0_5
FLAG 2496 352 0
FLAG 1264 352 0
FLAG 1264 384 0
FLAG 1792 320 0
FLAG 1792 224 Vdd
FLAG 1792 256 A
FLAG 1792 288 0
FLAG 1792 352 0
FLAG 1792 384 0
FLAG 2496 384 0
FLAG 2496 416 0
FLAG 2992 320 0
FLAG 2992 224 Vdd
FLAG 2992 256 A
FLAG 2992 288 0
FLAG 2992 352 0
FLAG 2992 384 0
FLAG 2992 416 0
FLAG 1952 816 0
FLAG 1952 720 Vdd
FLAG 1952 752 A
FLAG 1952 784 0
FLAG 2240 832 pseudo0_6
FLAG 2096 768 Vdd
FLAG 2096 896 0
FLAG 1952 848 0
FLAG 1952 880 0
FLAG 1952 912 0
FLAG 1952 944 0
FLAG 2416 816 0
FLAG 2416 720 Vdd
FLAG 2416 752 A
FLAG 2416 784 0
FLAG 2416 848 0
FLAG 2416 880 0
FLAG 2416 912 0
FLAG 2416 944 0
FLAG 2512 832 normal0_6
SYMBOL NORs\\pseudoNMOS\\pseudoNOR-2 1312 -176 R0
WINDOW 39 0 0 Left 0
SYMATTR InstName X1
SYMBOL NOR2x1 1824 -192 R0
SYMATTR InstName X3
SYMBOL voltage 2096 -608 R0
WINDOW 123 0 0 Left 0
WINDOW 39 0 0 Left 0
SYMATTR InstName V1
SYMATTR Value {Vdd}
SYMBOL voltage 2272 -608 R0
WINDOW 123 0 0 Left 0
WINDOW 39 0 0 Left 0
SYMATTR InstName V2
SYMATTR Value PULSE(0 {Vdd} 10n 1f 1f 10n 20n)
SYMBOL INVx1 1440 -176 R0
SYMATTR InstName X2
SYMBOL INVx1 2016 -192 R0
SYMATTR InstName X4
SYMBOL INVx1 2608 -176 R0
SYMATTR InstName X6
SYMBOL pseudoNOR-3 2480 -176 R0
SYMATTR InstName X5
SYMBOL NORs\\3-NOR 3024 -192 R0
SYMATTR InstName X7
SYMBOL INVx1 1440 304 R0
SYMATTR InstName X10
SYMBOL INVx1 2672 320 R0
SYMATTR InstName X14
SYMBOL NORs\\4-NOR 1840 304 R0
SYMATTR InstName X11
SYMBOL pseudoNOR-4 1312 304 R0
SYMATTR InstName X9
SYMBOL pseudoNOR-5 2544 320 R0
SYMATTR InstName X13
SYMBOL pseudoNOR-6 2000 832 R0
SYMATTR InstName X17
SYMBOL INVx1 2128 832 R0
SYMATTR InstName X18
SYMBOL NORs\\6-NOR 2464 832 R0
SYMATTR InstName X19
SYMBOL NORs\\5-NOR 3040 320 R0
SYMATTR InstName X15
TEXT 2024 -448 Left 2 !.tran 100n
TEXT 2376 -424 Left 2 !.inc ..\\..\\..\\..\\gf180\\cmos_tt.txt
TEXT 2024 -416 Left 2 !.param Vdd=3.3
TEXT 2024 -384 Left 2 !.step param a 0.3 1 0.05
TEXT 1200 -16 Left 2 !.meas TRAN DLH_p_2 TRIG V(a)={Vdd/2} RISE=1 TARG V(pseudo0_2)={Vdd/2} RISE=1\n.meas TRAN DLH_n_2 TRIG V(a)={Vdd/2} RISE=1 TARG V(normal0_2)={Vdd/2} RISE=1\n.meas TRAN DHL_p_2 TRIG V(a)={Vdd/2} FALL=1 TARG V(pseudo0_2)={Vdd/2} FALL=1\n.meas TRAN DHL_n_2 TRIG V(a)={Vdd/2} FALL=1 TARG V(normal0_2)={Vdd/2} FALL=1
TEXT 1208 -304 Left 2 ;2-NOR
TEXT 2368 -16 Left 2 !.meas TRAN DLH_p_3 TRIG V(a)={Vdd/2} RISE=1 TARG V(pseudo0_3)={Vdd/2} RISE=1\n.meas TRAN DLH_n_3 TRIG V(a)={Vdd/2} RISE=1 TARG V(normal0_3)={Vdd/2} RISE=1\n.meas TRAN DHL_p_3 TRIG V(a)={Vdd/2} FALL=1 TARG V(pseudo0_3)={Vdd/2} FALL=1\n.meas TRAN DHL_n_3 TRIG V(a)={Vdd/2} FALL=1 TARG V(normal0_3)={Vdd/2} FALL=1
TEXT 2376 -304 Left 2 ;3-NOR
TEXT 1200 464 Left 2 !.meas TRAN DLH_p_4 TRIG V(a)={Vdd/2} RISE=1 TARG V(pseudo0_4)={Vdd/2} RISE=1\n.meas TRAN DLH_n_4 TRIG V(a)={Vdd/2} RISE=1 TARG V(normal0_4)={Vdd/2} RISE=1\n.meas TRAN DHL_p_4 TRIG V(a)={Vdd/2} FALL=1 TARG V(pseudo0_4)={Vdd/2} FALL=1\n.meas TRAN DHL_n_4 TRIG V(a)={Vdd/2} FALL=1 TARG V(normal0_4)={Vdd/2} FALL=1
TEXT 1208 176 Left 2 ;4-NOR
TEXT 2368 480 Left 2 !.meas TRAN DLH_p_5 TRIG V(a)={Vdd/2} RISE=1 TARG V(pseudo0_5)={Vdd/2} RISE=1\n.meas TRAN DLH_n_5 TRIG V(a)={Vdd/2} RISE=1 TARG V(normal0_5)={Vdd/2} RISE=1\n.meas TRAN DHL_p_5 TRIG V(a)={Vdd/2} FALL=1 TARG V(pseudo0_5)={Vdd/2} FALL=1\n.meas TRAN DHL_n_5 TRIG V(a)={Vdd/2} FALL=1 TARG V(normal0_5)={Vdd/2} FALL=1
TEXT 2376 176 Left 2 ;5-NOR
TEXT 1824 1008 Left 2 !.meas TRAN DLH_p_6 TRIG V(a)={Vdd/2} RISE=1 TARG V(pseudo0_6)={Vdd/2} RISE=1\n.meas TRAN DLH_n_6 TRIG V(a)={Vdd/2} RISE=1 TARG V(normal0_6)={Vdd/2} RISE=1\n.meas TRAN DHL_p_6 TRIG V(a)={Vdd/2} FALL=1 TARG V(pseudo0_6)={Vdd/2} FALL=1\n.meas TRAN DHL_n_6 TRIG V(a)={Vdd/2} FALL=1 TARG V(normal0_6)={Vdd/2} FALL=1
TEXT 1832 672 Left 2 ;6-NOR
RECTANGLE Normal 2336 144 1184 -320
RECTANGLE Normal 3504 144 2352 -320
RECTANGLE Normal 2336 624 1184 160
RECTANGLE Normal 3504 624 2352 160
RECTANGLE Normal 2976 1152 1808 656
