Version 4.1
SHEET 1 3508 1548
WIRE 2016 -256 1984 -256
WIRE 1440 -240 1408 -240
WIRE 2016 -240 2016 -256
WIRE 1440 -224 1440 -240
WIRE 2128 -192 2096 -192
WIRE 1552 -176 1520 -176
WIRE 2016 -128 2016 -144
WIRE 2016 -128 1984 -128
WIRE 1440 -112 1440 -128
WIRE 1440 -112 1408 -112
WIRE 1440 48 1408 48
WIRE 1440 64 1440 48
WIRE 1552 112 1520 112
WIRE 1440 176 1440 160
WIRE 1440 176 1408 176
WIRE 2528 240 2496 240
WIRE 2528 256 2528 240
WIRE 2640 304 2608 304
WIRE 1440 336 1408 336
WIRE 1440 352 1440 336
WIRE 2528 368 2528 352
WIRE 2528 368 2496 368
WIRE 1552 400 1520 400
WIRE 1440 464 1440 448
WIRE 1440 464 1408 464
WIRE 1440 688 1408 688
WIRE 1440 704 1440 688
WIRE 1552 752 1520 752
WIRE 1440 816 1440 800
WIRE 1440 816 1408 816
FLAG 1264 -128 0
FLAG 1856 -128 0
FLAG 2432 -144 Vdd
FLAG 2432 -64 0
FLAG 1264 -224 Vdd
FLAG 1856 -256 Vdd
FLAG 2608 -144 A
FLAG 2608 -64 0
FLAG 1264 -192 A
FLAG 1744 -224 A
FLAG 1552 -176 pseudo0_2
FLAG 1408 -240 Vdd
FLAG 1408 -112 0
FLAG 1984 -256 Vdd
FLAG 1984 -128 0
FLAG 2128 -192 normal0_2
FLAG 1264 144 0
FLAG 1264 48 Vdd
FLAG 1264 80 A
FLAG 1552 112 pseudo0_3
FLAG 1408 48 Vdd
FLAG 1408 176 0
FLAG 1904 96 normal0_3
FLAG 1264 176 0
FLAG 1808 128 0
FLAG 1808 32 Vdd
FLAG 1808 64 A
FLAG 1808 160 0
FLAG 1264 416 0
FLAG 1264 320 Vdd
FLAG 1264 352 A
FLAG 1552 400 pseudo0_4
FLAG 1408 336 Vdd
FLAG 1408 464 0
FLAG 1888 400 normal0_4
FLAG 1264 752 0
FLAG 1264 656 Vdd
FLAG 1264 688 A
FLAG 1552 752 pseudo0_5
FLAG 1408 688 Vdd
FLAG 1408 816 0
FLAG 1856 752 normal0_5
FLAG 1264 784 0
FLAG 1264 448 0
FLAG 1264 480 0
FLAG 1792 416 0
FLAG 1792 320 Vdd
FLAG 1792 352 A
FLAG 1792 448 0
FLAG 1792 480 0
FLAG 1264 816 0
FLAG 1264 848 0
FLAG 1760 752 0
FLAG 1760 656 Vdd
FLAG 1760 688 A
FLAG 1760 784 0
FLAG 1760 816 0
FLAG 1760 848 0
FLAG 2352 288 0
FLAG 2352 192 Vdd
FLAG 2352 224 A
FLAG 2640 304 pseudo0_6
FLAG 2496 240 Vdd
FLAG 2496 368 0
FLAG 2352 320 0
FLAG 2352 352 0
FLAG 2352 384 0
FLAG 2352 416 0
FLAG 2816 288 0
FLAG 2816 192 Vdd
FLAG 2816 224 A
FLAG 2816 320 0
FLAG 2816 352 0
FLAG 2816 384 0
FLAG 2816 416 0
FLAG 2912 304 normal0_6
FLAG 1264 -160 B
FLAG 1744 -160 B
FLAG 1264 112 B
FLAG 1808 96 B
FLAG 1264 384 B
FLAG 1792 384 B
FLAG 1264 720 B
FLAG 1760 720 B
FLAG 2352 256 B
FLAG 2816 256 B
FLAG 2512 -320 B
FLAG 2512 -240 0
SYMBOL NORs\\pseudoNMOS\\pseudoNOR-2 1312 -176 R0
WINDOW 39 0 0 Left 0
SYMATTR InstName X1
SYMBOL NOR2x1 1824 -192 R0
SYMATTR InstName X3
SYMBOL voltage 2432 -160 R0
WINDOW 123 0 0 Left 0
WINDOW 39 0 0 Left 0
SYMATTR InstName V1
SYMATTR Value {Vdd}
SYMBOL voltage 2608 -160 R0
WINDOW 123 0 0 Left 0
WINDOW 39 0 0 Left 0
SYMATTR InstName V2
SYMATTR Value PULSE(0 {Vdd} 10n 1f 1f 10n 20n)
SYMBOL INVx1 1440 -176 R0
SYMATTR InstName X2
SYMBOL INVx1 2016 -192 R0
SYMATTR InstName X4
SYMBOL INVx1 1440 112 R0
SYMATTR InstName X6
SYMBOL pseudoNOR-3 1312 112 R0
SYMATTR InstName X5
SYMBOL NORs\\3-NOR 1856 96 R0
SYMATTR InstName X7
SYMBOL INVx1 1440 400 R0
SYMATTR InstName X10
SYMBOL INVx1 1440 752 R0
SYMATTR InstName X14
SYMBOL NORs\\4-NOR 1840 400 R0
SYMATTR InstName X11
SYMBOL pseudoNOR-4 1312 400 R0
SYMATTR InstName X9
SYMBOL pseudoNOR-5 1312 752 R0
SYMATTR InstName X13
SYMBOL pseudoNOR-6 2400 304 R0
SYMATTR InstName X17
SYMBOL INVx1 2528 304 R0
SYMATTR InstName X18
SYMBOL NORs\\6-NOR 2864 304 R0
SYMATTR InstName X19
SYMBOL NORs\\5-NOR 1808 752 R0
SYMATTR InstName X15
SYMBOL voltage 2512 -336 R0
WINDOW 123 0 0 Left 0
WINDOW 39 0 0 Left 0
SYMATTR InstName V3
SYMATTR Value PULSE(0 {Bval} 5n 1f 1f 10n 20n)
TEXT 2360 0 Left 2 !.tran 100n
TEXT 2712 24 Left 2 !.inc ..\\..\\..\\..\\gf180\\cmos_tt.txt
TEXT 2360 32 Left 2 !.param Vdd=3.3 a=0.7 Bval=3.3
TEXT 1208 -304 Left 2 ;2-OR
TEXT 1208 -16 Left 2 ;3-OR
TEXT 1208 272 Left 2 ;4-OR
TEXT 1208 576 Left 2 ;5-OR
TEXT 2232 144 Left 2 ;6-NOR
RECTANGLE Normal 2272 -48 1184 -320
RECTANGLE Normal 2048 240 1184 -32
RECTANGLE Normal 2048 544 1184 256
RECTANGLE Normal 2048 880 1184 560
RECTANGLE Normal 3104 480 2208 128
