

.subckt pmos_3p3 d g s b w=10u l=0.28u par=1 s_sab=0.48u d_sab=1.78u as=0 ad=0 ps=0 pd=0 nrd=0 nrs=0 dtemp=0 nf=1 sa=0 sb=0 sd=0 m=1

.param
+ par_vth=0.00666  
+ par_k=0.002833  
+ par_l=1.5e-7
+ par_w=-1e-7
+ par_leff='l-par_l'
+ par_weff='par*(w-par_w)'
+ p_sqrtarea='sqrt((par_leff)*(par_weff))'


xr1 d d1 b pplus_u_m1 wr='w' lr='d_sab' 
xr2 s s1 b pplus_u_m1 wr='w' lr='s_sab' 
m0 d1 g s1 b pmos_3p3 w='w' l='l' as=as ad=ad ps=ps pd=pd nrd=nrd nrs=nrs nf=nf sa=sa sb=sb sd=sd
.ends



.model  pmos_3p3.0  pmos
+level = 54
+lmin    = 2.8e-007      
+lmax    = 5e-007        
+wmin    = 2.2e-007      
+wmax    = 5e-007        
+version = 4.5           
+binunit = 2             
+paramchk= 1             
+mobmod  = 0             
+capmod  = 2             
+igcmod  = 0             
+igbmod  = 0             
+geomod  = 0             
+diomod  = 1             
+rdsmod  = 0             
+rbodymod= 0             
+rgatemod= 0             
+permod  = 1             
+acnqsmod= 0             
+trnqsmod= 0             
+tnom    = 25            
+toxe    = 7.5e-009      
+toxp    = 7.5e-009      
+toxm    = 7.9e-009      
+epsrox  = 3.9           
+wint    = -1e-008       
+lint    = 0             
+ll      = 0             
+wl      = 0             
+lln     = 1             
+wln     = 1             
+lw      = 0             
+ww      = 0             
+lwn     = 1             
+wwn     = 1             
+lwl     = 0             
+wwl     = 0             
+xl      = -1.2e-008     
+xw      = 1e-008        
+dlc     = -8e-009       
+dwc     = 0             
+xpart   = 0             
+toxref  = 7.9e-009      
+dlcig   = 1.5e-007      
+vth0    = -0.67663617   
+lvth0   = -7.3534153e-009
+wvth0   = 4.7732695e-009
+pvth0   = 2.3377109e-015
+k1      = 0.8647782     
+lk1     = 6.1568267e-009
+wk1     = 6.9370633e-008
+pk1     = -2.0803095e-014
+k2      = 0.028918855   
+lk2     = -2.3507638e-008
+wk2     = -2.2539936e-008
+pk2     = 3.3878523e-015
+k3      = 0             
+k3b     = 0             
+w0      = 2.5e-006      
+dvt0    = 2.8985        
+dvt1    = 0.23999       
+dvt2    = -0.016        
+dvt0w   = 0             
+dvt1w   = 5300000       
+dvt2w   = -0.032        
+dsub    = 0.3659        
+minv    = -0.1          
+voffl   = 0             
+dvtp0   = 0             
+dvtp1   = 0             
+lpe0    = 3.2493e-008   
+lpeb    = 0             
+vbm     = -3            
+xj      = 1e-007        
+ngate   = 6e+019        
+ndep    = 5.6e+017      
+nsd     = 1e+020        
+phin    = 0             
+cdsc    = 0.00024       
+cdscb   = 0             
+cdscd   = 0             
+cit     = 0             
+voff    = -0.094667623  
+lvoff   = -1.5583678e-009
+wvoff   = -1.6924896e-009
+pvoff   = 8.2593493e-016
+nfactor = 0.8           
+eta0    = 0.2541        
+etab    = -0.15284      
+vfb     = 0             
+u0      = 0.0078719299  
+lu0     = 2.3274457e-009
+wu0     = 5.9859026e-010
+pu0     = -5.221169e-016
+ua      = 8.7644416e-011
+lua     = 9.8467082e-016
+wua     = -1.3940377e-017
+pua     = -1.9023228e-022
+ub      = 6.5842379e-019
+lub     = -1.3426634e-025
+wub     = -5.017448e-027
+pub     = 1.3446761e-033
+uc      = 8.863003e-011 
+luc     = 8.2624703e-018
+wuc     = -1.4595908e-017
+puc     = -4.4377124e-024
+eu      = 1.67          
+vsat    = 94000         
+a0      = 1.0088763     
+la0     = -1.9069135e-007
+wa0     = 1.154901e-008 
+pa0     = -2.7146703e-015
+ags     = 0.20174918    
+lags    = 9.8918351e-008
+wags    = -2.5751203e-008
+pags    = -1.198112e-014
+a1      = 0             
+a2      = 0.99          
+b0      = 0             
+b1      = 0             
+keta    = -0.065134512  
+lketa   = 7.447618e-009 
+wketa   = -7.4415355e-009
+pketa   = 3.6314694e-015
+dwg     = 0             
+dwb     = 0             
+pclm    = 0.35995623    
+lpclm   = 6.5671827e-008
+wpclm   = 3.1666898e-008
+ppclm   = 6.4870775e-015
+pdiblc1 = 0.1484        
+pdiblc2 = 0.00073695    
+pdiblcb = 0             
+drout   = 0.56          
+pvag    = 0             
+delta   = 0.01          
+pscbe1  = 6.7448e+008   
+pscbe2  = 1e-005        
+fprout  = 0             
+pdits   = 0             
+pditsd  = 0             
+pditsl  = 0             
+rsh     = 7             
+rdsw    = 466           
+rdswmin = 20            
+prwg    = 0             
+prwb    = 0             
+alpha0  = 1.1235927e-005
+lalpha0 = -2.8123501e-012
+walpha0 = -1.0380713e-013
+palpha0 = 6.3405134e-020
+alpha1  = 0             
+beta0   = 39.445349     
+lbeta0  = -3.3940359e-006
+wbeta0  = 2.3377646e-007
+pbeta0  = 1.1730752e-013
+agidl   = 1.5908e-011   
+bgidl   = 1.3902e+009   
+cgidl   = 7.5           
+egidl   = 0.1009        
+cgso    = 1.116e-010    
+cgdo    = 1.116e-010    
+cgbo    = 1e-013        
+cgdl    = 3.6e-011      
+cgsl    = 3.6e-011      
+clc     = 1e-007        
+cle     = 0.6           
+cf      = 0             
+ckappas = 0.6           
+ckappad = 0.6           
+vfbcv   = -1            
+acde    = 1             
+moin    = 15            
+noff    = 2.4           
+voffcv  = -0.16         
+tvoff   = 0.0032        
+ltvoff  = 0             
+wtvoff  = 0             
+ptvoff  = 0             
+kt1     = -0.28422543   
+lkt1    = -1.5068185e-008
+wkt1    = -1.1684779e-008
+pkt1    = 1.9241808e-015
+kt1l    = 0             
+kt2     = -0.013066     
+ute     = -1            
+ua1     = 1.1573864e-009
+lua1    = 1.6719545e-016
+wua1    = 1.8158523e-016
+pua1    = -8.8613591e-023
+ub1     = -2.1477044e-018
+lub1    = -6.4044033e-025
+wub1    = -1.3505708e-025
+pub1    = 1.4828008e-031
+uc1     = -2.5233764e-010
+luc1    = 5.5767486e-017
+wuc1    = 4.2084409e-017
+puc1    = -1.3941872e-023
+prt     = 0             
+at      = 12000         
+fnoimod = 1             
+tnoimod = 0             
+em      = 4.1e+007      
+ef      = 1.12          
 
  
  
+ntnoi   = 1             
+jss     = 1.653e-007    
+jsws    = 2.1207e-013   
+jswgs   = 0             
+njs     = 1             
+ijthsfwd= 0.1           
+ijthsrev= 0.1           
+jtss    = 1e-011        
+jtssws  = 1e-011        
+jtsswgs = 1e-011        
+njts    = 20            
+njtssw  = 20            
+njtsswg = 20            
+vtss    = 10            
+vtssws  = 10            
+vtsswgs = 10            
+pbs     = 0.69939       
+cjs     = 0.00094344    
+mjs     = 0.32084       
+pbsws   = 0.8022        
+cjsws   = 1.5078e-010   
+mjsws   = 0.05          
+pbswgs  = 0.65          
+cjswgs  = 4.794e-010    
+mjswgs  = 0.21964       
+tpb     = 0.0016906     
+tcj     = 0.00099187    
+tpbsw   = 0.0052     
+tcjsw   = 0.00063483    
+tpbswg  = 0.000744      
+tcjswg  = 0.000932      
+xtis    = 3             
+dmcg    = 1.5e-007      
+saref   = 4.4e-007      
+sbref   = 4.4e-007      
+kvth0   = 0             
+ku0     = 0             
+kvsat   = 0             
.model  pmos_3p3.1  pmos
+level = 54
+lmin    = 5e-007        
+lmax    = 1.2e-006      
+wmin    = 2.2e-007      
+wmax    = 5e-007        
+version = 4.5           
+binunit = 2             
+paramchk= 1             
+mobmod  = 0             
+capmod  = 2             
+igcmod  = 0             
+igbmod  = 0             
+geomod  = 0             
+diomod  = 1             
+rdsmod  = 0             
+rbodymod= 0             
+rgatemod= 0             
+permod  = 1             
+acnqsmod= 0             
+trnqsmod= 0             
+tnom    = 25            
+toxe    = 7.5e-009      
+toxp    = 7.5e-009      
+toxm    = 7.9e-009      
+epsrox  = 3.9           
+wint    = -1e-008       
+lint    = 0             
+ll      = 0             
+wl      = 0             
+lln     = 1             
+wln     = 1             
+lw      = 0             
+ww      = 0             
+lwn     = 1             
+wwn     = 1             
+lwl     = 0             
+wwl     = 0             
+xl      = -1.2e-008     
+xw      = 1e-008        
+dlc     = -8e-009       
+dwc     = 0             
+xpart   = 0             
+toxref  = 7.9e-009      
+dlcig   = 1.5e-007      
+vth0    = -0.70748201   
+lvth0   = 7.6993553e-009
+wvth0   = 6.367274e-009 
+pvth0   = 1.5598367e-015
+k1      = 1.0117326     
+lk1     = -6.5556919e-008
+wk1     = -1.8642534e-008
+pk1     = 2.214733e-014 
+k2      = -0.018588529  
+lk2     = -3.2403549e-010
+wk2     = -2.8080536e-009
+pk2     = -6.2413065e-015
+k3      = 0             
+k3b     = 0             
+w0      = 2.5e-006      
+dvt0    = 2.8985        
+dvt1    = 0.23999       
+dvt2    = -0.016        
+dvt0w   = 0             
+dvt1w   = 5300000       
+dvt2w   = -0.032        
+dsub    = 0.3659        
+minv    = -0.1          
+voffl   = 0             
+dvtp0   = 0             
+dvtp1   = 0             
+lpe0    = 3.2493e-008   
+lpeb    = 0             
+vbm     = -3            
+xj      = 1e-007        
+ngate   = 6e+019        
+ndep    = 5.6e+017      
+nsd     = 1e+020        
+phin    = 0             
+cdsc    = 0.00024       
+cdscb   = 0             
+cdscd   = 0             
+cit     = 0             
+voff    = -0.12338433   
+lvoff   = 1.2455386e-008
+nfactor = 0.8           
+eta0    = 0.2541        
+etab    = -0.15284      
+vfb     = 0             
+u0      = 0.010331202   
+lu0     = 1.1273211e-009
+wu0     = -2.6339567e-010
+pu0     = -1.0146777e-016
+ua      = 3.9172068e-010
+lua     = 8.3628161e-016
+wua     = -4.9371285e-017
+pua     = -1.72942e-022 
+ub      = 1.0960127e-018
+lub     = -3.4780972e-025
+wub     = -2.0220479e-025
+pub     = 9.7572098e-032
+uc      = -1.1491615e-011
+luc     = 5.7121833e-017
+wuc     = -8.0009433e-018
+puc     = -7.6560549e-024
+eu      = 1.67          
+vsat    = 94000         
+a0      = 1.1426483     
+la0     = -2.5597206e-007
+wa0     = 4.0977761e-008
+pa0     = -1.7075901e-014
+ags     = 0.19126654    
+lags    = 1.0403388e-007
+wags    = 1.4058737e-008
+pags    = -3.1408371e-014
+a1      = 0             
+a2      = 0.99          
+b0      = 0             
+b1      = 0             
+keta    = -0.0053639133 
+lketa   = -2.1720434e-008
+wketa   = -2.3169788e-009
+pketa   = 1.1306857e-015
+dwg     = 0             
+dwb     = 0             
+pclm    = 0.25217946    
+lpclm   = 1.1826689e-007
+wpclm   = 9.0167278e-008
+ppclm   = -2.2061108e-014
+pdiblc1 = 0.1484        
+pdiblc2 = 0.00025119377 
+lpdiblc2= 2.3704904e-010
+pdiblcb = 0             
+drout   = 0.56          
+pvag    = 0             
+delta   = 0.01          
+pscbe1  = 6.7448e+008   
+pscbe2  = 1e-005        
+fprout  = 0             
+pdits   = 0             
+pditsd  = 0             
+pditsl  = 0             
+rsh     = 7             
+rdsw    = 466           
+rdswmin = 20            
+prwg    = 0             
+prwb    = 0             
+alpha0  = 7.4423186e-005
+lalpha0 = -3.3647732e-011
+walpha0 = 5.050231e-012 
+palpha0 = -2.4517655e-018
+alpha1  = 0             
+beta0   = 42.301722     
+lbeta0  = -4.787946e-006
+wbeta0  = 2.9506668e-007
+pbeta0  = 8.7397887e-014
+agidl   = 1.5908e-011   
+bgidl   = 1.3902e+009   
+cgidl   = 7.5           
+egidl   = 0.1009        
+cgso    = 1.116e-010    
+cgdo    = 1.116e-010    
+cgbo    = 1e-013        
+cgdl    = 3.6e-011      
+cgsl    = 3.6e-011      
+clc     = 1e-007        
+cle     = 0.6           
+cf      = 0             
+ckappas = 0.6           
+ckappad = 0.6           
+vfbcv   = -1            
+acde    = 1             
+moin    = 15            
+noff    = 2.4           
+voffcv  = -0.16         
+tvoff   = 0.0032        
+ltvoff  = 0             
+wtvoff  = 0             
+ptvoff  = 0             
+kt1     = -0.30910467   
+lkt1    = -2.9271156e-009
+wkt1    = 2.6245925e-008
+pkt1    = -1.6586003e-014
+kt1l    = 0             
+kt2     = -0.013066     
+ute     = -1            
+ua1     = 1.5e-009      
+ub1     = -2.2487222e-018
+lub1    = -5.9114366e-025
+wub1    = -3.3106883e-026
+pub1    = 9.852838e-032 
+uc1     = -7.6682222e-011
+luc1    = -2.9952355e-017
+wuc1    = 6.6740899e-018
+puc1    = 3.3383641e-024
+prt     = 0             
+at      = 12000         
+fnoimod = 1             
+tnoimod = 0             
+em      = 4.1e+007      
+ef      = 1.12          
 
  
  
+ntnoi   = 1             
+jss     = 1.653e-007    
+jsws    = 2.1207e-013   
+jswgs   = 0             
+njs     = 1             
+ijthsfwd= 0.1           
+ijthsrev= 0.1           
+jtss    = 1e-011        
+jtssws  = 1e-011        
+jtsswgs = 1e-011        
+njts    = 20            
+njtssw  = 20            
+njtsswg = 20            
+vtss    = 10            
+vtssws  = 10            
+vtsswgs = 10            
+pbs     = 0.69939       
+cjs     = 0.00094344    
+mjs     = 0.32084       
+pbsws   = 0.8022        
+cjsws   = 1.5078e-010   
+mjsws   = 0.05          
+pbswgs  = 0.65          
+cjswgs  = 4.794e-010    
+mjswgs  = 0.21964       
+tpb     = 0.0016906     
+tcj     = 0.00099187    
+tpbsw   = 0.0052     
+tcjsw   = 0.00063483    
+tpbswg  = 0.000744      
+tcjswg  = 0.000932      
+xtis    = 3             
+dmcg    = 1.5e-007      
+saref   = 4.4e-007      
+sbref   = 4.4e-007      
+kvth0   = 0             
+ku0     = 0             
+kvsat   = 0             
.model  pmos_3p3.2  pmos
+level = 54
+lmin    = 1.2e-006      
+lmax    = 1e-005        
+wmin    = 2.2e-007      
+wmax    = 5e-007        
+version = 4.5           
+binunit = 2             
+paramchk= 1             
+mobmod  = 0             
+capmod  = 2             
+igcmod  = 0             
+igbmod  = 0             
+geomod  = 0             
+diomod  = 1             
+rdsmod  = 0             
+rbodymod= 0             
+rgatemod= 0             
+permod  = 1             
+acnqsmod= 0             
+trnqsmod= 0             
+tnom    = 25            
+toxe    = 7.5e-009      
+toxp    = 7.5e-009      
+toxm    = 7.9e-009      
+epsrox  = 3.9           
+wint    = -1e-008       
+lint    = 0             
+ll      = 0             
+wl      = 0             
+lln     = 1             
+wln     = 1             
+lw      = 0             
+ww      = 0             
+lwn     = 1             
+wwn     = 1             
+lwl     = 0             
+wwl     = 0             
+xl      = -1.2e-008     
+xw      = 1e-008        
+dlc     = -8e-009       
+dwc     = 0             
+xpart   = 0             
+toxref  = 7.9e-009      
+dlcig   = 1.5e-007      
+vth0    = -0.6927634    
+lvth0   = -9.7863494e-009
+wvth0   = 3.9098384e-009
+pvth0   = 4.4792702e-015
+k1      = 0.95248832    
+lk1     = 4.8252741e-009
+wk1     = 3.2440732e-008
+pk1     = -3.853959e-014
+k2      = -0.0097979054 
+lk2     = -1.0767296e-008
+wk2     = -1.5975284e-008
+pk2     = 9.4013629e-015
+k3      = 0             
+k3b     = 0             
+w0      = 2.5e-006      
+dvt0    = 2.8985        
+dvt1    = 0.23999       
+dvt2    = -0.016        
+dvt0w   = 0             
+dvt1w   = 5300000       
+dvt2w   = -0.032        
+dsub    = 0.3659        
+minv    = -0.1          
+voffl   = 0             
+dvtp0   = 0             
+dvtp1   = 0             
+lpe0    = 3.2493e-008   
+lpeb    = 0             
+vbm     = -3            
+xj      = 1e-007        
+ngate   = 6e+019        
+ndep    = 5.6e+017      
+nsd     = 1e+020        
+phin    = 0             
+cdsc    = 0.00024       
+cdscb   = 0             
+cdscd   = 0             
+cit     = 0             
+voff    = -0.097813945  
+lvoff   = -1.7922234e-008
+wvoff   = 1.0511012e-009
+pvoff   = -1.2487082e-015
+nfactor = 0.8           
+eta0    = 0.2541        
+etab    = -0.15284      
+vfb     = 0             
+u0      = 0.0087371575  
+lu0     = 3.0210454e-009
+wu0     = 2.316895e-010 
+pu0     = -6.8962895e-016
+ua      = 4.0327941e-010
+lua     = 8.2254984e-016
+wua     = -5.6078614e-017
+pua     = -1.6497369e-022
+ub      = 8.6053432e-019
+lub     = -6.8061407e-026
+wub     = -1.1643187e-025
+pub     = -4.3261328e-033
+uc      = -4.4147189e-011
+luc     = 9.5916655e-017
+wuc     = 1.9501336e-018
+puc     = -1.9477934e-023
+eu      = 1.67          
+vsat    = 94000         
+a0      = 1.2624812     
+la0     = -3.983336e-007
+wa0     = -3.5915545e-009
+pa0     = 3.5872446e-014
+ags     = 0.1574043     
+lags    = 1.4426221e-007
+wags    = 7.5813661e-010
+pags    = -1.5607258e-014
+a1      = 0             
+a2      = 0.99          
+b0      = 0             
+b1      = 0             
+keta    = 8.6249554e-005
+lketa   = -2.8195228e-008
+wketa   = -3.6739399e-009
+pketa   = 2.7427554e-015
+dwg     = 0             
+dwb     = 0             
+pclm    = 0.32107112    
+lpclm   = 3.6423596e-008
+wpclm   = 5.3623696e-009
+ppclm   = 7.8687123e-014
+pdiblc1 = 0.1484        
+pdiblc2 = 7.88813e-005  
+lpdiblc2= 4.4175626e-010
+pdiblcb = 0             
+drout   = 0.56          
+pvag    = 0             
+delta   = 0.01          
+pscbe1  = 6.7448e+008   
+pscbe2  = 1e-005        
+fprout  = 0             
+pdits   = 0             
+pditsd  = 0             
+pditsl  = 0             
+rsh     = 7             
+rdsw    = 466           
+rdswmin = 20            
+prwg    = 0             
+prwb    = 0             
+alpha0  = 0.0020546973  
+lalpha0 = -2.3862134e-009
+walpha0 = 2.3605119e-011
+palpha0 = -2.4494972e-017
+alpha1  = 0             
+beta0   = 44.410558     
+lbeta0  = -7.2932429e-006
+wbeta0  = 4.2825183e-007
+pbeta0  = -7.0826067e-014
+agidl   = 1.5908e-011   
+bgidl   = 1.3902e+009   
+cgidl   = 7.5           
+egidl   = 0.1009        
+cgso    = 1.116e-010    
+cgdo    = 1.116e-010    
+cgbo    = 1e-013        
+cgdl    = 3.6e-011      
+cgsl    = 3.6e-011      
+clc     = 1e-007        
+cle     = 0.6           
+cf      = 0             
+ckappas = 0.6           
+ckappad = 0.6           
+vfbcv   = -1            
+acde    = 1             
+moin    = 15            
+noff    = 1.946         
+lnoff   = 5.39352e-007  
+voffcv  = 0.0216        
+lvoffcv = -2.157408e-007
+tvoff   = 0.0032        
+ltvoff  = 0             
+wtvoff  = 0             
+ptvoff  = 0             
+kt1     = -0.2677292    
+lkt1    = -5.2081178e-008
+wkt1    = -1.0950226e-008
+pkt1    = 2.7603024e-014
+kt1l    = 0             
+kt2     = -0.013066     
+ute     = -1            
+ua1     = 1.5e-009      
+ub1     = -3.0352362e-018
+lub1    = 3.4323494e-025
+wub1    = 2.0295616e-025
+pub1    = -1.8191452e-031
+uc1     = -3.4663323e-011
+luc1    = -7.9870808e-017
+wuc1    = -1.3010587e-017
+puc1    = 2.672376e-023 
+prt     = 0             
+at      = 12000         
+fnoimod = 1             
+tnoimod = 0             
+em      = 4.1e+007      
+ef      = 1.12          
 
  
  
+ntnoi   = 1             
+jss     = 1.653e-007    
+jsws    = 2.1207e-013   
+jswgs   = 0             
+njs     = 1             
+ijthsfwd= 0.1           
+ijthsrev= 0.1           
+jtss    = 1e-011        
+jtssws  = 1e-011        
+jtsswgs = 1e-011        
+njts    = 20            
+njtssw  = 20            
+njtsswg = 20            
+vtss    = 10            
+vtssws  = 10            
+vtsswgs = 10            
+pbs     = 0.69939       
+cjs     = 0.00094344    
+mjs     = 0.32084       
+pbsws   = 0.8022        
+cjsws   = 1.5078e-010   
+mjsws   = 0.05          
+pbswgs  = 0.65          
+cjswgs  = 4.794e-010    
+mjswgs  = 0.21964       
+tpb     = 0.0016906     
+tcj     = 0.00099187    
+tpbsw   = 0.0052     
+tcjsw   = 0.00063483    
+tpbswg  = 0.000744      
+tcjswg  = 0.000932      
+xtis    = 3             
+dmcg    = 1.5e-007      
+saref   = 4.4e-007      
+sbref   = 4.4e-007      
+kvth0   = 0             
+ku0     = 0             
+kvsat   = 0             
.model  pmos_3p3.3  pmos
+level = 54
+lmin    = 1e-005        
+lmax    = 5.0001e-005   
+wmin    = 2.2e-007      
+wmax    = 5e-007        
+version = 4.5           
+binunit = 2             
+paramchk= 1             
+mobmod  = 0             
+capmod  = 2             
+igcmod  = 0             
+igbmod  = 0             
+geomod  = 0             
+diomod  = 1             
+rdsmod  = 0             
+rbodymod= 0             
+rgatemod= 0             
+permod  = 1             
+acnqsmod= 0             
+trnqsmod= 0             
+tnom    = 25            
+toxe    = 7.5e-009      
+toxp    = 7.5e-009      
+toxm    = 7.9e-009      
+epsrox  = 3.9           
+wint    = -1e-008       
+lint    = 0             
+ll      = 0             
+wl      = 0             
+lln     = 1             
+wln     = 1             
+lw      = 0             
+ww      = 0             
+lwn     = 1             
+wwn     = 1             
+lwl     = 0             
+wwl     = 0             
+xl      = -1.2e-008     
+xw      = 1e-008        
+dlc     = -8e-009       
+dwc     = 0             
+xpart   = 0             
+toxref  = 7.9e-009      
+dlcig   = 1.5e-007      
+vth0    = -0.69374321   
+wvth0   = 4.3583036e-009
+k1      = 0.95297143    
+wk1     = 2.8582143e-008
+k2      = -0.010875929  
+wk2     = -1.5034018e-008
+k3      = 0             
+k3b     = 0             
+w0      = 2.5e-006      
+dvt0    = 2.8985        
+dvt1    = 0.23999       
+dvt2    = -0.016        
+dvt0w   = 0             
+dvt1w   = 5300000       
+dvt2w   = -0.032        
+dsub    = 0.3659        
+minv    = -0.1          
+voffl   = 0             
+dvtp0   = 0             
+dvtp1   = 0             
+lpe0    = 3.2493e-008   
+lpeb    = 0             
+vbm     = -3            
+xj      = 1e-007        
+ngate   = 6e+019        
+ndep    = 5.6e+017      
+nsd     = 1e+020        
+phin    = 0             
+cdsc    = 0.00024       
+cdscb   = 0             
+cdscd   = 0             
+cit     = 0             
+voff    = -0.099608321  
+wvoff   = 9.2608036e-010
+nfactor = 0.8           
+eta0    = 0.2541        
+etab    = -0.15284      
+vfb     = 0             
+u0      = 0.009039625   
+wu0     = 1.6264375e-010
+ua      = 4.8563321e-010
+wua     = -7.2595804e-017
+ub      = 8.5372e-019   
+wub     = -1.16865e-025 
+uc      = -3.4544e-011  
+eu      = 1.67          
+vsat    = 94000         
+a0      = 1.2226        
+ags     = 0.17184786    
+wags    = -8.0446429e-010
+a1      = 0             
+a2      = 0.99          
+b0      = 0             
+b1      = 0             
+keta    = -0.0027366607 
+wketa   = -3.3993348e-009
+dwg     = 0             
+dwb     = 0             
+pclm    = 0.32471786    
+wpclm   = 1.3240536e-008
+pdiblc1 = 0.1484        
+pdiblc2 = 0.00012311    
+pdiblcb = 0             
+drout   = 0.56          
+pvag    = 0             
+delta   = 0.01          
+pscbe1  = 6.7448e+008   
+pscbe2  = 1e-005        
+fprout  = 0             
+pdits   = 0             
+pditsd  = 0             
+pditsl  = 0             
+rsh     = 7             
+rdsw    = 466           
+rdswmin = 20            
+prwg    = 0             
+prwb    = 0             
+alpha0  = 0.0018157893  
+walpha0 = 2.1152679e-011
+alpha1  = 0             
+beta0   = 43.680357     
+wbeta0  = 4.2116071e-007
+agidl   = 1.5908e-011   
+bgidl   = 1.3902e+009   
+cgidl   = 7.5           
+egidl   = 0.1009        
+cgso    = 1.116e-010    
+cgdo    = 1.116e-010    
+cgbo    = 1e-013        
+cgdl    = 3.6e-011      
+cgsl    = 3.6e-011      
+clc     = 1e-007        
+cle     = 0.6           
+cf      = 0             
+ckappas = 0.6           
+ckappad = 0.6           
+vfbcv   = -1            
+acde    = 1             
+moin    = 15            
+noff    = 2             
+voffcv  = 0             
+tvoff   = 0.0032        
+ltvoff  = 0             
+wtvoff  = 0             
+ptvoff  = 0             
+kt1     = -0.27294357   
+wkt1    = -8.1866071e-009
+kt1l    = 0             
+kt2     = -0.013066     
+ute     = -1            
+ua1     = 1.5e-009      
+ub1     = -3.0008714e-018
+wub1    = 1.8474286e-025
+uc1     = -4.266e-011   
+wuc1    = -1.0335e-017  
+prt     = 0             
+at      = 12000         
+fnoimod = 1             
+tnoimod = 0             
+em      = 4.1e+007      
+ef      = 1.12          
 
  
  
+ntnoi   = 1             
+jss     = 1.653e-007    
+jsws    = 2.1207e-013   
+jswgs   = 0             
+njs     = 1             
+ijthsfwd= 0.1           
+ijthsrev= 0.1           
+jtss    = 1e-011        
+jtssws  = 1e-011        
+jtsswgs = 1e-011        
+njts    = 20            
+njtssw  = 20            
+njtsswg = 20            
+vtss    = 10            
+vtssws  = 10            
+vtsswgs = 10            
+pbs     = 0.69939       
+cjs     = 0.00094344    
+mjs     = 0.32084       
+pbsws   = 0.8022        
+cjsws   = 1.5078e-010   
+mjsws   = 0.05          
+pbswgs  = 0.65          
+cjswgs  = 4.794e-010    
+mjswgs  = 0.21964       
+tpb     = 0.0016906     
+tcj     = 0.00099187    
+tpbsw   = 0.0052     
+tcjsw   = 0.00063483    
+tpbswg  = 0.000744      
+tcjswg  = 0.000932      
+xtis    = 3             
+dmcg    = 1.5e-007      
+saref   = 4.4e-007      
+sbref   = 4.4e-007      
+kvth0   = 0             
+ku0     = 0             
+kvsat   = 0             
.model  pmos_3p3.4  pmos
+level = 54
+lmin    = 2.8e-007      
+lmax    = 5e-007        
+wmin    = 5e-007        
+wmax    = 1.2e-006      
+version = 4.5           
+binunit = 2             
+paramchk= 1             
+mobmod  = 0             
+capmod  = 2             
+igcmod  = 0             
+igbmod  = 0             
+geomod  = 0             
+diomod  = 1             
+rdsmod  = 0             
+rbodymod= 0             
+rgatemod= 0             
+permod  = 1             
+acnqsmod= 0             
+trnqsmod= 0             
+tnom    = 25            
+toxe    = 7.5e-009      
+toxp    = 7.5e-009      
+toxm    = 7.9e-009      
+epsrox  = 3.9           
+wint    = -1e-008       
+lint    = 0             
+ll      = 0             
+wl      = 0             
+lln     = 1             
+wln     = 1             
+lw      = 0             
+ww      = 0             
+lwn     = 1             
+wwn     = 1             
+lwl     = 0             
+wwl     = 0             
+xl      = -1.2e-008     
+xw      = 1e-008        
+dlc     = -8e-009       
+dwc     = 0             
+xpart   = 0             
+toxref  = 7.9e-009      
+dlcig   = 1.5e-007      
+vth0    = -0.69642702   
+lvth0   = -1.9920781e-009
+wvth0   = 1.5262418e-008
+pvth0   = -5.037978e-016
+k1      = 0.99566618    
+lk1     = -3.3094297e-008
+k2      = 0.012709478   
+lk2     = -1.9136714e-008
+wk2     = -1.3948967e-008
+pk2     = 1.0712624e-015
+k3      = 0             
+k3b     = 0             
+w0      = 2.5e-006      
+dvt0    = 2.8985        
+dvt1    = 0.23999       
+dvt2    = -0.016        
+dvt0w   = 0             
+dvt1w   = 5300000       
+dvt2w   = -0.032        
+dsub    = 0.3659        
+minv    = -0.1          
+voffl   = 0             
+dvtp0   = 0             
+dvtp1   = 0             
+lpe0    = 3.2493e-008   
+lpeb    = 0             
+vbm     = -3            
+xj      = 1e-007        
+ngate   = 6e+019        
+ndep    = 5.6e+017      
+nsd     = 1e+020        
+phin    = 0             
+cdsc    = 0.00024       
+cdscb   = 0             
+cdscd   = 0             
+cit     = 0             
+voff    = -0.097861     
+nfactor = 0.8           
+eta0    = 0.2541        
+etab    = -0.15284      
+vfb     = 0             
+u0      = 0.0093531893  
+lu0     = 1.7194104e-009
+wu0     = -1.8647726e-010
+pu0     = -1.9985825e-016
+ua      = -1.7033143e-011
+lua     = 6.9948888e-016
+wua     = 4.1538729e-017
+pua     = -3.9085851e-023
+ub      = 1.7312067e-018
+lub     = -2.899821e-025
+wub     = -5.7359242e-025
+pub     = 8.387403e-032 
+uc      = 8.7990522e-011
+luc     = 1.1729669e-017
+wuc     = -1.4256968e-017
+puc     = -6.2753276e-024
+eu      = 1.67          
+vsat    = 94000         
+a0      = 0.65645235    
+la0     = -9.5523869e-008
+wa0     = 1.9833372e-007
+pa0     = -5.3153436e-014
+ags     = 0.21104356    
+lags    = 6.5010179e-008
+wags    = -3.0677229e-008
+pags    = 5.9902112e-015
+a1      = 0             
+a2      = 0.99          
+b0      = 0             
+b1      = 0             
+keta    = -0.10320034   
+lketa   = 2.0738198e-008
+wketa   = 1.2733351e-008
+pketa   = -3.4125381e-015
+dwg     = 0             
+dwb     = 0             
+pclm    = 0.38016331    
+lpclm   = 2.5024839e-008
+wpclm   = 2.0957146e-008
+ppclm   = 2.8029981e-014
+pdiblc1 = 0.1484        
+pdiblc2 = 0.00073695    
+pdiblcb = 0             
+drout   = 0.56          
+pvag    = 0             
+delta   = 0.01          
+pscbe1  = 6.7448e+008   
+pscbe2  = 1e-005        
+fprout  = 0             
+pdits   = 0             
+pditsd  = 0             
+pditsl  = 0             
+rsh     = 7             
+rdsw    = 466           
+rdswmin = 20            
+prwg    = 0             
+prwb    = 0             
+alpha0  = 1.1826838e-005
+lalpha0 = -2.8274782e-012
+walpha0 = -4.1699029e-013
+palpha0 = 7.1423027e-020
+alpha1  = 0             
+beta0   = 37.990543     
+lbeta0  = -2.5313328e-006
+wbeta0  = 1.0048234e-006
+pbeta0  = -3.3992511e-013
+agidl   = 1.5908e-011   
+bgidl   = 1.3902e+009   
+cgidl   = 7.5           
+egidl   = 0.1009        
+cgso    = 1.116e-010    
+cgdo    = 1.116e-010    
+cgbo    = 1e-013        
+cgdl    = 3.6e-011      
+cgsl    = 3.6e-011      
+clc     = 1e-007        
+cle     = 0.6           
+cf      = 0             
+ckappas = 0.6           
+ckappad = 0.6           
+vfbcv   = -1            
+acde    = 1             
+moin    = 15            
+noff    = 2.4           
+voffcv  = -0.16         
+tvoff   = 0.0032        
+ltvoff  = 0             
+wtvoff  = 0             
+ptvoff  = 0             
+kt1     = -0.33242454   
+lkt1    = 5.9583152e-010
+wkt1    = 1.3860749e-008
+pkt1    = -6.377748e-015
+kt1l    = 0             
+kt2     = -0.013066     
+ute     = -1            
+ua1     = 1.99446e-009  
+lua1    = -2.4129648e-016
+wua1    = -2.620638e-016
+pua1    = 1.2788713e-022
+ub1     = -2.8941809e-018
+lub1    = -2.5045136e-026
+wub1    = 2.6057544e-025
+pub1    = -1.7787938e-031
+uc1     = 4.9114909e-012
+luc1    = -3.2836296e-017
+wuc1    = -9.4257628e-017
+puc1    = 3.3018133e-023
+prt     = 0             
+at      = 12000         
+fnoimod = 1             
+tnoimod = 0             
+em      = 4.1e+007      
+ef      = 1.12          
 
  
  
+ntnoi   = 1             
+jss     = 1.653e-007    
+jsws    = 2.1207e-013   