Version 4.1
SHEET 1 880 680
WIRE -32 -64 -32 -80
WIRE -352 -48 -384 -48
WIRE -112 -16 -160 -16
WIRE 96 -16 48 -16
WIRE -352 16 -384 16
WIRE -32 48 -32 32
WIRE 464 64 464 48
WIRE 96 80 96 -16
WIRE 144 80 96 80
WIRE 384 112 336 112
WIRE 576 112 544 112
WIRE 144 144 96 144
WIRE 464 176 464 160
WIRE -32 192 -32 176
WIRE -352 208 -384 208
WIRE -112 240 -160 240
WIRE 96 240 96 144
WIRE 96 240 48 240
WIRE -352 272 -384 272
WIRE -32 304 -32 288
FLAG -256 48 Vee
IOPIN -256 48 In
FLAG -32 -80 Vdd
IOPIN -32 -80 In
FLAG -32 48 Vee
IOPIN -32 48 In
FLAG -256 304 Vee
IOPIN -256 304 In
FLAG -32 176 Vdd
IOPIN -32 176 In
FLAG -32 304 Vee
IOPIN -32 304 In
FLAG 240 176 Vee
IOPIN 240 176 In
FLAG 464 48 Vdd
IOPIN 464 48 In
FLAG 464 176 Vee
IOPIN 464 176 In
FLAG 576 112 X
IOPIN 576 112 Out
FLAG -384 -48 A
IOPIN -384 -48 In
FLAG -384 16 B
IOPIN -384 16 In
FLAG -384 208 C
IOPIN -384 208 In
FLAG -384 272 D
IOPIN -384 272 In
FLAG 240 48 Vdd
IOPIN 240 48 In
FLAG -256 -80 Vdd
IOPIN -256 -80 In
FLAG -256 176 Vdd
IOPIN -256 176 In
SYMBOL NAND2x1 -256 -16 R0
SYMATTR InstName X7
SYMBOL NAND2x1 -256 240 R0
SYMATTR InstName X8
SYMBOL NAND2x1 240 112 R0
SYMATTR InstName X9
SYMBOL INVx1 -32 -16 R0
SYMATTR InstName X10
SYMBOL INVx1 -32 240 R0
SYMATTR InstName X11
SYMBOL INVx1 464 112 R0
SYMATTR InstName X12
