Version 4.1
SHEET 1 1164 808
WIRE 560 96 560 80
WIRE 240 112 80 112
WIRE 480 144 432 144
WIRE 672 144 640 144
WIRE 240 176 192 176
WIRE 560 208 560 192
FLAG -16 32 Vdd
IOPIN -16 32 In
FLAG -16 192 Vee
IOPIN -16 192 In
FLAG -16 64 A
IOPIN -16 64 In
FLAG -16 96 B
IOPIN -16 96 In
FLAG -16 128 C
IOPIN -16 128 In
FLAG -16 160 D
IOPIN -16 160 In
FLAG 336 208 Vee
IOPIN 336 208 In
FLAG 560 80 Vdd
IOPIN 560 80 In
FLAG 560 208 Vee
IOPIN 560 208 In
FLAG 672 144 X
IOPIN 672 144 Out
FLAG 192 176 E
IOPIN 192 176 In
FLAG 336 80 Vdd
IOPIN 336 80 In
SYMBOL NAND2x1 336 144 R0
SYMATTR InstName X1
SYMBOL INVx1 560 144 R0
SYMATTR InstName X2
SYMBOL 4-NAND 32 112 R0
SYMATTR InstName X4
