Version 4.1
SHEET 1 3508 1548
WIRE 1536 -256 1504 -256
WIRE 1536 -240 1536 -256
WIRE 1648 -192 1616 -192
WIRE 1536 -128 1536 -144
WIRE 1536 -128 1504 -128
FLAG 1360 -128 0
FLAG 2000 -192 Vdd
FLAG 2000 -112 0
FLAG 1360 -256 Vdd
FLAG 2000 0 A
FLAG 2000 80 0
FLAG 1264 -224 A
FLAG 1504 -256 Vdd
FLAG 1504 -128 0
FLAG 1648 -192 normal0_2
FLAG 1264 48 Vdd
FLAG 1264 80 A
FLAG 1360 112 normal0_3
FLAG 1264 176 0
FLAG 1360 416 normal0_4
FLAG 1696 144 normal0_5
FLAG 1264 336 Vdd
FLAG 1264 368 A
FLAG 1264 496 0
FLAG 1600 48 Vdd
FLAG 1600 80 A
FLAG 1600 240 0
FLAG 1632 384 Vdd
FLAG 1632 416 A
FLAG 1632 608 0
FLAG 1728 496 normal0_6
FLAG 1264 -160 B
FLAG 1264 112 B
FLAG 1264 400 B
FLAG 1600 112 B
FLAG 1632 448 B
FLAG 2000 144 B
FLAG 2000 224 0
FLAG 1264 144 Vdd
FLAG 1264 432 Vdd
FLAG 1264 464 Vdd
FLAG 1632 480 Vdd
FLAG 1632 512 Vdd
FLAG 1632 544 Vdd
FLAG 1632 576 Vdd
FLAG 1600 208 Vdd
FLAG 1600 176 Vdd
FLAG 1600 144 Vdd
SYMBOL voltage 2000 -208 R0
WINDOW 123 0 0 Left 0
WINDOW 39 0 0 Left 0
SYMATTR InstName V1
SYMATTR Value {Vdd}
SYMBOL voltage 2000 -16 R0
WINDOW 123 0 0 Left 0
WINDOW 39 0 0 Left 0
SYMATTR InstName V2
SYMATTR Value PULSE(0 {Vdd} 10n 1f 1f 10n 20n)
SYMBOL INVx1 1536 -192 R0
SYMATTR InstName X4
SYMBOL voltage 2000 128 R0
WINDOW 123 0 0 Left 0
WINDOW 39 0 0 Left 0
SYMATTR InstName V3
SYMATTR Value PULSE(0 {Bval} 5n 1f 1f 10n 20n)
SYMBOL NAND2x1 1360 -192 R0
SYMATTR InstName X1
SYMBOL 4-NAND 1312 416 R0
SYMATTR InstName X3
SYMBOL 6-NAND 1680 496 R0
SYMATTR InstName X7
SYMBOL 3-NAND 1312 112 R0
SYMATTR InstName X8
SYMBOL 5-NAND 1648 144 R0
SYMATTR InstName X2
TEXT 1936 376 Left 2 !.tran 100n
TEXT 1936 448 Left 2 !.inc ..\\..\\..\\gf180\\cmos_tt.txt
TEXT 1936 408 Left 2 !.param Vdd=3.3 a=0.7 Bval={Vdd}
TEXT 1208 -304 Left 2 ;2-AND
TEXT 1208 -16 Left 2 ;3-AND
TEXT 1208 272 Left 2 ;4-AND
TEXT 1544 -16 Left 2 ;5-AND
TEXT 1544 320 Left 2 ;6-NAND
RECTANGLE Normal 1792 -48 1184 -320
RECTANGLE Normal 1488 224 1184 -32
RECTANGLE Normal 1488 544 1184 256
RECTANGLE Normal 1824 288 1520 -32
RECTANGLE Normal 1888 656 1520 304
