Version 4
SHEET 1 4752 840
WIRE 1072 -1104 576 -1104
WIRE 1072 -1072 576 -1072
WIRE 1072 -1040 576 -1040
WIRE 1072 -1008 576 -1008
WIRE -5280 -640 -5280 -672
WIRE -5280 -544 -5280 -560
WIRE -4496 -544 -4576 -544
WIRE -4176 -544 -4240 -544
WIRE -4496 -512 -4576 -512
WIRE -4176 -512 -4240 -512
WIRE -5280 -400 -5280 -432
WIRE -960 -336 -960 -368
WIRE -896 -336 -960 -336
WIRE -960 -320 -960 -336
WIRE -5280 -304 -5280 -320
WIRE -896 -272 -896 -336
WIRE -896 -272 -960 -272
WIRE -1296 -240 -1296 -304
WIRE -1008 -240 -1088 -240
WIRE -1392 -208 -1504 -208
WIRE -1376 -208 -1392 -208
WIRE -1088 -176 -1088 -240
WIRE -1088 -176 -1200 -176
WIRE -960 -176 -960 -224
WIRE -864 -176 -960 -176
WIRE -1392 -144 -1504 -144
WIRE -960 -144 -960 -176
WIRE 2192 -112 1968 -112
WIRE -896 -96 -960 -96
WIRE 2192 -80 1968 -80
WIRE -1088 -64 -1088 -176
WIRE -1008 -64 -1088 -64
WIRE 2192 -48 1968 -48
WIRE -960 -32 -960 -48
WIRE -896 -32 -896 -96
WIRE -896 -32 -960 -32
WIRE 2192 -16 1968 -16
WIRE -960 16 -960 -32
WIRE 2192 16 1968 16
WIRE 2192 48 1968 48
WIRE -1728 528 -1728 512
FLAG -2032 -640 phi0_0
FLAG -2032 -608 phi0_1
FLAG -2032 -576 phi0_2
FLAG -2032 -544 phi0_3
FLAG -2032 -512 phi0_4
FLAG -2032 -480 phi0_5
FLAG -2032 -448 phi1_0
FLAG -2032 -416 phi1_1
FLAG -2032 -384 phi1_2
FLAG -2032 -352 phi1_3
FLAG -2032 -320 phi1_4
FLAG -2032 -288 phi1_5
FLAG -2032 -256 phi2_0
FLAG -2032 -224 phi2_1
FLAG -2032 -192 phi2_2
FLAG -2032 -160 phi2_3
FLAG -2032 -128 phi2_4
FLAG -2032 -96 phi2_5
FLAG -2032 -64 phi3_0
FLAG -2032 -32 phi3_1
FLAG -2032 0 phi3_2
FLAG -2032 32 phi3_3
FLAG -2032 64 phi3_4
FLAG -2032 96 phi3_5
FLAG -1936 592 0
FLAG -2256 -640 Vdd
FLAG -1936 512 Vdd
FLAG 416 -1104 vdd
FLAG 416 -1072 q0
FLAG 416 -1040 q1
FLAG 1232 -1104 Vdd
FLAG 1232 -736 y0_ff
FLAG 1232 -704 y1_ff
FLAG 1232 -672 y2_ff
FLAG 1232 -640 y3_ff
FLAG 1232 -608 y4_ff
FLAG 1232 -576 y5_ff
FLAG -400 -1264 phi0_0
FLAG -400 -1232 phi0_1
FLAG -400 -1200 phi0_2
FLAG -400 -1168 phi0_3
FLAG -400 -1136 phi0_4
FLAG -400 -1104 phi0_5
FLAG -400 -896 phi1_0
FLAG -400 -864 phi1_1
FLAG -400 -832 phi1_2
FLAG -400 -800 phi1_3
FLAG -400 -768 phi1_4
FLAG -400 -736 phi1_5
FLAG -400 -176 phi3_0
FLAG -400 -144 phi3_1
FLAG -400 -112 phi3_2
FLAG -400 -80 phi3_3
FLAG -400 -48 phi3_4
FLAG -400 -16 phi3_5
FLAG -400 -544 phi2_0
FLAG -400 -512 phi2_1
FLAG -400 -480 phi2_2
FLAG -400 -448 phi2_3
FLAG -400 -416 phi2_4
FLAG -400 -384 phi2_5
FLAG -288 -1264 q0_0
FLAG -288 -1232 q0_1
FLAG -288 -1200 q0_2
FLAG -288 -1168 q0_3
FLAG -288 -1136 q0_4
FLAG -288 -1104 q0_5
FLAG -288 -896 q1_0
FLAG -288 -864 q1_1
FLAG -288 -832 q1_2
FLAG -288 -800 q1_3
FLAG -288 -768 q1_4
FLAG -288 -736 q1_5
FLAG -288 -544 q2_0
FLAG -288 -512 q2_1
FLAG -288 -480 q2_2
FLAG -288 -448 q2_3
FLAG -288 -416 q2_4
FLAG -288 -384 q2_5
FLAG -288 -176 q3_0
FLAG -288 -144 q3_1
FLAG -288 -112 q3_2
FLAG -288 -80 q3_3
FLAG -288 -48 q3_4
FLAG -288 -16 q3_5
FLAG 1072 -976 q0_0
FLAG 1072 -944 q0_1
FLAG 1072 -912 q0_2
FLAG 1072 -880 q0_3
FLAG 1072 -848 q0_4
FLAG 1072 -816 q0_5
FLAG 1072 -768 q1_0
FLAG 1072 -736 q1_1
FLAG 1072 -704 q1_2
FLAG 1072 -672 q1_3
FLAG 1072 -640 q1_4
FLAG 1072 -608 q1_5
FLAG 1072 -560 q2_0
FLAG 1072 -528 q2_1
FLAG 1072 -496 q2_2
FLAG 1072 -464 q2_3
FLAG 1072 -432 q2_4
FLAG 1072 -400 q2_5
FLAG 1072 -352 q3_0
FLAG 1072 -320 q3_1
FLAG 1072 -288 q3_2
FLAG 1072 -256 q3_3
FLAG 1072 -224 q3_4
FLAG 1072 -192 q3_5
FLAG -288 -1312 Vdd
FLAG -288 -944 Vdd
FLAG -288 -592 Vdd
FLAG -288 -224 Vdd
FLAG 496 -624 q0
FLAG 496 -592 q1
FLAG 384 -624 vdd
FLAG 384 -592 ck_fast
FLAG -1728 592 0
FLAG -1728 512 ck_fast
IOPIN -1728 512 In
FLAG -5280 -544 0
FLAG -5280 -672 i_clk
FLAG -5280 -304 0
FLAG -5280 -432 i_rstb
FLAG -4176 -544 o_D[5:2]
FLAG -4576 -544 i_clk
FLAG -4576 -512 i_rstb
FLAG -4176 -512 o_D[1:0]
FLAG -2256 -432 q0_2
FLAG -2256 -400 q0_3
FLAG -2256 -368 q0_4
FLAG -2256 -336 q0_5
FLAG -2688 -160 Vdd
FLAG -2800 -48 o_D[2]
IOPIN -2800 -48 In
FLAG -2800 -16 o_D[3]
IOPIN -2800 -16 In
FLAG -2800 16 o_D[4]
IOPIN -2800 16 In
FLAG -2800 48 o_D[5]
IOPIN -2800 48 In
FLAG -2800 -80 0
FLAG -2800 -112 0
FLAG -2688 -80 0
FLAG -2688 -112 0
FLAG -2688 -48 oc_0
FLAG -2688 -16 oc_1
FLAG -2688 16 oc_2
FLAG -2688 48 oc_3
FLAG -2256 -224 oc_0
FLAG -2256 -192 oc_1
FLAG -2256 -160 oc_2
FLAG -2256 -128 oc_3
FLAG 1968 -160 Vdd
FLAG 1856 -160 ck_fast
FLAG 2288 -112 y0
IOPIN 2288 -112 Out
FLAG 2288 -80 y1
IOPIN 2288 -80 Out
FLAG 2288 -48 y2
IOPIN 2288 -48 Out
FLAG 2288 -16 y3
IOPIN 2288 -16 Out
FLAG 2288 16 y4
IOPIN 2288 16 Out
FLAG 2288 48 y5
IOPIN 2288 48 Out
FLAG 1856 -112 y0_ff
FLAG 1856 -80 y1_ff
FLAG 1856 -48 y2_ff
FLAG 1856 -16 y3_ff
FLAG 1856 16 y4_ff
FLAG 1856 48 y5_ff
FLAG -1504 -144 q1
FLAG -1504 -208 q0
FLAG -1296 -304 Vdd
FLAG -1296 -112 0
FLAG -864 -176 EN
FLAG -400 32 EN
FLAG -400 -336 EN
FLAG -400 -688 EN
FLAG -400 -1056 EN
FLAG -400 -592 ck_fast
FLAG -400 -944 ck_fast
FLAG -400 -1312 ck_fast
FLAG -400 -224 ck_fast
FLAG -2800 -160 ck_fast
FLAG -2800 96 EN
FLAG -960 -368 Vdd
IOPIN -960 -368 In
FLAG -960 16 0
FLAG 2192 -144 ck_fast
FLAG -2256 96 Vss
IOPIN -2256 96 In
FLAG -2240 576 0
FLAG -2240 496 Vss
SYMBOL voltage -1936 496 R0
WINDOW 123 0 0 Left 0
WINDOW 39 0 0 Left 0
SYMATTR InstName V1
SYMATTR Value 3.3
SYMBOL 24X6MUC 1152 -656 R0
SYMATTR InstName X1
SYMBOL DECODER 496 -1056 R0
SYMATTR InstName X2
SYMBOL 2bcount 432 -608 R0
SYMATTR InstName X3
SYMBOL voltage -1728 496 R0
WINDOW 123 0 0 Left 0
WINDOW 39 0 0 Left 0
SYMATTR InstName V2
SYMATTR Value PULSE(0 3.3 'td' 'tt' 'tt' 'tclk/2' 'tclk')
SYMBOL voltage -5280 -656 R0
SYMATTR InstName V3
SYMATTR Value PULSE(0 3.3 'td' 'tt' 'tt' '4*tclk/2' '4*tclk')
SYMBOL voltage -5280 -416 R0
SYMATTR InstName V4
SYMATTR Value PULSE(3.3 0 1n 'tt' 'tt' 10n)
SYMBOL RAMP -4368 -528 R0
SYMATTR InstName A1
SYMBOL pseudo_FIR_CLA_NoCin -2144 -272 R0
SYMATTR InstName X4
SYMBOL dff_ideal_5 2240 -48 R0
SYMATTR InstName X5
SYMBOL NAND2x1 -1296 -176 R0
SYMATTR InstName X6
SYMBOL sdff_5_EN -352 -1184 R0
SYMATTR InstName X7
SYMBOL sdff_5_EN -352 -816 R0
SYMATTR InstName X8
SYMBOL sdff_5_EN -352 -464 R0
SYMATTR InstName X9
SYMBOL sdff_5_EN -352 -96 R0
SYMATTR InstName X10
SYMBOL sdff_5_EN -2752 -32 R0
SYMATTR InstName X11
SYMBOL nmos4 -1008 -144 R0
SYMATTR InstName M1
SYMATTR Value nmos_3p3
SYMATTR Value2 l=0.28u w=3u
SYMBOL nmos4 -1008 -320 R0
SYMATTR InstName M2
SYMATTR Value pmos_3p3
SYMATTR Value2 l=0.28u w=9u
SYMBOL DFF_5 1904 -48 R0
SYMATTR InstName X12
SYMBOL voltage -2240 480 R0
WINDOW 123 0 0 Left 0
WINDOW 39 0 0 Left 0
SYMATTR InstName V5
SYMATTR Value 0
TEXT -3480 -1432 Left 2 !.param a=0.9
TEXT 4000 -760 Left 2 ;(0.25*V(y0)+0.5*V(y1)+V(y2)+2*V(y3)+4*V(y4)+8*V(y5))/3.3
TEXT -3424 -1288 Left 2 !.tran {100*t_oc}\n.param f_oc = 1.8G\n.param t_oc = {1/f_oc}\n.param tclk = {t_oc}\n.param td = {t_oc/5}\n.param tt = 10p
TEXT -1968 784 Left 2 !.ic V(phi0_0)=0 V(phi0_1)=0 V(phi0_2)=0 V(phi0_3)=0 V(phi0_4)=0 V(phi0_5)=0
TEXT -3320 768 Left 2 !.meas TRAN Pvdd AVG V(Vdd)*I(V13)     FROM={50*tclk} TO={70*tclk}\n.meas TRAN Pclk AVG V(ck_fast)*I(V17) FROM={50*tclk} TO={70*tclk}\n.meas TRAN Ptot AVG Pclk+Pvdd         FROM={50*tclk} TO={70*tclk}
TEXT -2952 -352 Left 2 ;INPUT DFF
TEXT -2200 -720 Left 2 ;CLA FIR
TEXT -1536 -560 Left 2 ;ENABLE GENERATION
TEXT -440 -1392 Left 2 ;OUTPUT FIR DFF
TEXT 1040 -1256 Left 2 ;MUX\n- Select which phase to output
TEXT 280 -752 Left 2 ;PHASE GENERATOR\n- Counter from 0-3
TEXT 248 -1336 Left 2 ;PHASE DECODER\n- Map each output of PHASE GENERATOR to \n  each phase\n- 0->PHI_0\n- 1->PHI_1\n- 2->PHI_2\n- 3->PHI_3
TEXT 1816 -232 Left 2 ;OUTPUT DFF
TEXT 2168 -232 Left 2 ;IDEAL DFF TO VISUALIZE RESULTS
TEXT 1664 -472 Left 2 ;OUTPUT STAGE
TEXT 168 -1480 Left 2 ;CONTROL STAGE
TEXT -2464 -896 Left 2 ;ADDER STAGE
TEXT -1624 -1536 Left 2 ;PIPELINED FLIP FLOP STAGE
TEXT -1624 -1464 Left 2 ;- The FFs change their outputs only after foc/4
TEXT 3984 -824 Left 2 ;COPY THIS IN THE WAVE FORM SIMULATOR
TEXT -3872 656 Left 2 !.inc ../../gf180/cmos_tt.txt
TEXT -3504 -1464 Left 2 ;'a' determines pseudo nmos width ratio
TEXT -3504 -1320 Left 2 ;foc is the frequency of the fast clock
RECTANGLE Normal -2512 224 -2992 -400 2
RECTANGLE Normal -1728 224 -2464 -864 2
RECTANGLE Normal 80 208 -1648 -1504 2
RECTANGLE Normal -688 112 -1584 -608 2
RECTANGLE Normal 1584 208 160 -1440 2
RECTANGLE Normal 2640 208 1648 -432 2
RECTANGLE Normal 784 -864 224 -1392 2
RECTANGLE Normal 1488 -96 928 -1344 2
RECTANGLE Normal 608 -496 224 -816 2
