Version 4.1
SHEET 1 2644 1284
WIRE 768 -752 -128 -752
WIRE 736 -720 -96 -720
WIRE 704 -688 -64 -688
WIRE 672 -656 -32 -656
WIRE 480 -576 272 -576
WIRE 672 -576 672 -656
WIRE 672 -576 640 -576
WIRE 480 -528 400 -528
WIRE 560 -464 560 -480
WIRE -32 -400 -32 -656
WIRE 48 -400 -32 -400
WIRE 480 -384 304 -384
WIRE 704 -384 704 -688
WIRE 704 -384 640 -384
WIRE -64 -368 -64 -688
WIRE 48 -368 -64 -368
WIRE 208 -352 192 -352
WIRE -96 -336 -96 -720
WIRE 48 -336 -96 -336
WIRE 400 -336 400 -528
WIRE 480 -336 400 -336
WIRE -128 -304 -128 -752
WIRE 48 -304 -128 -304
WIRE 272 -288 272 -576
WIRE 272 -288 192 -288
WIRE 560 -272 560 -288
WIRE 304 -256 304 -384
WIRE 304 -256 192 -256
WIRE 48 -240 -32 -240
WIRE 304 -224 192 -224
WIRE 48 -208 -16 -208
WIRE -16 -192 -16 -208
WIRE 256 -192 192 -192
WIRE 304 -192 304 -224
WIRE 480 -192 304 -192
WIRE 736 -192 736 -720
WIRE 736 -192 640 -192
WIRE -304 -176 -304 -192
WIRE 48 -176 0 -176
WIRE 0 -160 0 -176
WIRE 48 -144 16 -144
WIRE 400 -144 400 -336
WIRE 480 -144 400 -144
WIRE 16 -128 16 -144
WIRE -304 -80 -304 -96
WIRE 560 -80 560 -96
WIRE 256 0 256 -192
WIRE 480 0 256 0
WIRE 768 0 768 -752
WIRE 768 0 640 0
WIRE -304 48 -304 32
WIRE 400 48 400 -144
WIRE 400 48 96 48
WIRE 480 48 400 48
WIRE 560 112 560 96
WIRE -304 144 -304 128
FLAG -304 -80 0
FLAG -304 -192 Vdd
IOPIN -304 -192 Out
FLAG -16 -192 0
FLAG 0 -160 0
FLAG 16 -128 0
FLAG 96 48 Clk
IOPIN 96 48 In
FLAG 192 -448 Vdd
IOPIN 192 -448 In
FLAG -304 144 0
FLAG -304 32 Clk
IOPIN -304 32 Out
FLAG 560 -464 0
FLAG 560 -272 0
FLAG 560 -80 0
FLAG 560 112 0
FLAG 208 -352 Co
IOPIN 208 -352 Out
FLAG 272 -576 S_0
FLAG 304 -384 S_1
FLAG 304 -192 S_2
FLAG 256 0 S_3
FLAG -32 -240 Vdd
IOPIN -32 -240 In
FLAG 192 -416 0
FLAG 48 -448 0
SYMBOL voltage -304 -192 R0
SYMATTR InstName V1
SYMATTR Value {Vdd}
SYMBOL Digital\\dflop 560 -624 R0
WINDOW 3 -98 74 Left 2
SYMATTR Value Vhigh=3.3 Vlow=0
SYMATTR InstName A0
SYMBOL voltage -304 32 R0
WINDOW 123 0 0 Left 0
WINDOW 39 0 0 Left 0
SYMATTR InstName V2
SYMATTR Value PULSE(0 {Vdd} 20u 50n 50n 10u 20u)
SYMBOL Digital\\dflop 560 -432 R0
WINDOW 3 -98 74 Left 2
SYMATTR Value Vhigh=3.3 Vlow=0
SYMATTR InstName A1
SYMBOL Digital\\dflop 560 -240 R0
WINDOW 3 -98 74 Left 2
SYMATTR Value Vhigh=3.3 Vlow=0
SYMATTR InstName A2
SYMBOL Digital\\dflop 560 -48 R0
WINDOW 3 -98 74 Left 2
SYMATTR Value Vhigh=3.3 Vlow=0
SYMATTR InstName A3
SYMBOL CLA-4bit 112 -288 R0
SYMATTR InstName X1
TEXT 808 -520 Left 2 !.inc C:\\Users\\Amteo\\Desktop\\SPICE\\gf180\\cmos_tt.txt
TEXT 808 -552 Left 2 !.param Vdd=3.3
TEXT 808 -584 Left 2 !.tran 680u
