Version 4
SHEET 1 4440 1284
WIRE 4240 -672 4240 -688
WIRE 1872 -656 1872 -672
WIRE 3152 -656 3152 -672
WIRE 3936 -656 3904 -656
WIRE 1552 -640 1504 -640
WIRE 2832 -640 2784 -640
WIRE 4160 -624 4112 -624
WIRE 4352 -624 4320 -624
WIRE 1792 -608 1744 -608
WIRE 2048 -608 1952 -608
WIRE 2448 -608 2448 -624
WIRE 3072 -608 3024 -608
WIRE 3328 -608 3232 -608
WIRE 2048 -592 2048 -608
WIRE 2128 -592 2048 -592
WIRE 3936 -592 3904 -592
WIRE 1552 -576 1504 -576
WIRE 2832 -576 2784 -576
WIRE 2368 -560 2320 -560
WIRE 2576 -560 2528 -560
WIRE 1872 -544 1872 -560
WIRE 3152 -544 3152 -560
WIRE 4240 -544 4240 -576
WIRE 2128 -528 2032 -528
WIRE 2448 -496 2448 -512
WIRE 3248 -448 2960 -448
WIRE 3328 -448 3328 -608
WIRE 3424 -448 3328 -448
WIRE 3248 -416 3248 -448
WIRE 3424 -416 3248 -416
WIRE 3552 -400 3520 -400
WIRE 3424 -384 3328 -384
WIRE 2960 -352 2960 -448
WIRE 2960 -352 2928 -352
WIRE 4240 -352 4240 -368
WIRE 3936 -336 3904 -336
WIRE 4160 -304 4112 -304
WIRE 4352 -304 4320 -304
WIRE 3328 -288 3328 -384
WIRE 3328 -288 3184 -288
WIRE 1888 -272 1888 -288
WIRE 3936 -272 3904 -272
WIRE 1568 -256 1520 -256
WIRE 1808 -224 1760 -224
WIRE 2064 -224 1968 -224
WIRE 4240 -224 4240 -256
WIRE 1568 -192 1520 -192
WIRE -304 -176 -304 -192
WIRE 1888 -160 1888 -176
WIRE -304 -80 -304 -96
WIRE 2064 -64 2064 -224
WIRE 2160 -64 2064 -64
WIRE 2160 -32 2000 -32
WIRE 2288 -32 2256 -32
WIRE 2944 -32 2944 -48
WIRE 4240 -32 4240 -48
WIRE 2624 -16 2576 -16
WIRE 3936 -16 3904 -16
WIRE 2864 16 2816 16
WIRE 3136 16 3024 16
WIRE 4160 16 4112 16
WIRE 4352 16 4320 16
WIRE -304 48 -304 32
WIRE 2624 48 2576 48
WIRE 3936 48 3904 48
WIRE 2000 64 2000 -32
WIRE 2000 64 1936 64
WIRE 2944 80 2944 64
WIRE 4240 96 4240 64
WIRE 3136 128 3136 16
WIRE 3296 128 3136 128
WIRE -304 144 -304 128
WIRE 3296 160 2752 160
WIRE 3296 192 2992 192
WIRE 3424 192 3392 192
WIRE 3296 224 3216 224
WIRE 2752 256 2752 160
WIRE 2752 256 2720 256
WIRE 4240 288 4240 272
WIRE 3936 304 3904 304
WIRE 2992 320 2992 192
WIRE 2992 320 2944 320
WIRE 4160 336 4112 336
WIRE 4352 336 4320 336
WIRE 3216 352 3216 224
WIRE 3216 352 3168 352
WIRE 3936 368 3904 368
WIRE 4240 416 4240 384
FLAG -304 -80 0
FLAG -304 -192 Vdd
IOPIN -304 -192 Out
FLAG -304 144 0
FLAG -304 32 Clk
IOPIN -304 32 Out
FLAG 2096 -864 A_0
IOPIN 2096 -864 In
FLAG 2096 -832 B_0
IOPIN 2096 -832 In
FLAG 2096 -800 Vee
IOPIN 2096 -800 In
FLAG 2096 -896 Vdd
IOPIN 2096 -896 In
FLAG 2192 -864 G_0
FLAG 2192 -832 P_0
FLAG 2352 -864 A_1
IOPIN 2352 -864 In
FLAG 2352 -832 B_1
IOPIN 2352 -832 In
FLAG 2352 -800 Vee
IOPIN 2352 -800 In
FLAG 2352 -896 Vdd
IOPIN 2352 -896 In
FLAG 2448 -864 G_1
FLAG 2448 -832 P_1
FLAG 2608 -864 A_2
IOPIN 2608 -864 In
FLAG 2608 -832 B_2
IOPIN 2608 -832 In
FLAG 2608 -800 Vee
IOPIN 2608 -800 In
FLAG 2608 -896 Vdd
IOPIN 2608 -896 In
FLAG 2704 -864 G_2
FLAG 2704 -832 P_2
FLAG 2864 -864 A_3
IOPIN 2864 -864 In
FLAG 2864 -832 B_3
IOPIN 2864 -832 In
FLAG 2864 -800 Vee
IOPIN 2864 -800 In
FLAG 2864 -896 Vdd
IOPIN 2864 -896 In
FLAG 2960 -864 G_3
FLAG 2960 -832 P_3
FLAG 2448 -624 Vdd
IOPIN 2448 -624 In
FLAG 2448 -496 Vee
IOPIN 2448 -496 In
FLAG 2240 -624 Vdd
IOPIN 2240 -624 In
FLAG 2240 -496 Vee
IOPIN 2240 -496 In
FLAG 1872 -672 Vdd
IOPIN 1872 -672 In
FLAG 1872 -544 Vee
IOPIN 1872 -544 In
FLAG 1648 -672 Vdd
IOPIN 1648 -672 In
FLAG 1648 -544 Vee
IOPIN 1648 -544 In
FLAG 2032 -528 G_0
FLAG 2576 -560 Co_0
FLAG 1504 -640 P_0
FLAG 1504 -576 Cin
IOPIN 1504 -576 In
FLAG 1888 -288 Vdd
IOPIN 1888 -288 In
FLAG 1888 -160 Vee
IOPIN 1888 -160 In
FLAG 1664 -288 Vdd
IOPIN 1664 -288 In
FLAG 1664 -160 Vee
IOPIN 1664 -160 In
FLAG 1520 -256 P_1
FLAG 1840 0 Vdd
IOPIN 1840 0 In
FLAG 1840 128 Vee
IOPIN 1840 128 In
FLAG 1840 32 P_0
FLAG 1840 64 P_1
FLAG 1840 96 Cin
IOPIN 1840 96 In
FLAG 2160 32 Vee
IOPIN 2160 32 In
FLAG 2160 -96 Vdd
IOPIN 2160 -96 In
FLAG 2160 0 G_1
FLAG 2288 -32 Co_1
FLAG 3552 -400 Co_2
FLAG 3296 96 Vdd
IOPIN 3296 96 In
FLAG 3296 288 Vee
IOPIN 3296 288 In
FLAG 3424 192 Co_3
IOPIN 3424 192 Out
FLAG 3088 -368 Vdd
IOPIN 3088 -368 In
FLAG 3088 -208 Vee
IOPIN 3088 -208 In
FLAG 3152 -672 Vdd
IOPIN 3152 -672 In
FLAG 3152 -544 Vee
IOPIN 3152 -544 In
FLAG 2928 -672 Vdd
IOPIN 2928 -672 In
FLAG 2928 -544 Vee
IOPIN 2928 -544 In
FLAG 2784 -640 P_2
FLAG 2832 -416 Vdd
IOPIN 2832 -416 In
FLAG 2832 -288 Vee
IOPIN 2832 -288 In
FLAG 2832 -384 P_1
FLAG 2832 -352 P_2
FLAG 3424 -320 Vee
IOPIN 3424 -320 In
FLAG 3424 -480 Vdd
IOPIN 3424 -480 In
FLAG 3424 -352 G_2
FLAG 1520 -192 G_0
FLAG 2784 -576 G_1
FLAG 2832 -320 G_0
FLAG 3088 -304 P_1
FLAG 3088 -272 P_2
FLAG 3088 -240 Cin
IOPIN 3088 -240 In
FLAG 3088 -336 P_0
FLAG 3296 256 G_3
FLAG 2848 240 Vdd
IOPIN 2848 240 In
FLAG 2848 400 Vee
IOPIN 2848 400 In
FLAG 2944 -48 Vdd
IOPIN 2944 -48 In
FLAG 2944 80 Vee
IOPIN 2944 80 In
FLAG 2720 -48 Vdd
IOPIN 2720 -48 In
FLAG 2720 80 Vee
IOPIN 2720 80 In
FLAG 2576 -16 P_3
FLAG 2624 192 Vdd
IOPIN 2624 192 In
FLAG 2624 320 Vee
IOPIN 2624 320 In
FLAG 2624 224 P_2
FLAG 2624 256 P_3
FLAG 2576 48 G_2
FLAG 2624 288 G_1
FLAG 2848 272 P_1
FLAG 2848 304 P_2
FLAG 3072 256 Vdd
IOPIN 3072 256 In
FLAG 3072 448 Vee
IOPIN 3072 448 In
FLAG 3072 320 P_1
FLAG 3072 352 P_2
FLAG 3072 416 Cin
IOPIN 3072 416 In
FLAG 3072 288 P_0
FLAG 3072 384 P_3
FLAG 2848 368 G_0
FLAG 2848 336 P_3
FLAG 4240 -688 Vdd
IOPIN 4240 -688 In
FLAG 4240 -544 Vee
IOPIN 4240 -544 In
FLAG 4032 -560 Vee
IOPIN 4032 -560 In
FLAG 4032 -688 Vdd
IOPIN 4032 -688 In
FLAG 3904 -656 P_3
FLAG 3904 -592 Co_2
FLAG 4240 -368 Vdd
IOPIN 4240 -368 In
FLAG 4240 -224 Vee
IOPIN 4240 -224 In
FLAG 4032 -240 Vee
IOPIN 4032 -240 In
FLAG 4032 -368 Vdd
IOPIN 4032 -368 In
FLAG 3904 -336 P_2
FLAG 3904 -272 Co_1
FLAG 4352 -624 S3
IOPIN 4352 -624 Out
FLAG 4352 -304 S2
IOPIN 4352 -304 Out
FLAG 4240 -48 Vdd
IOPIN 4240 -48 In
FLAG 4240 96 Vee
IOPIN 4240 96 In
FLAG 4032 80 Vee
IOPIN 4032 80 In
FLAG 4032 -48 Vdd
IOPIN 4032 -48 In
FLAG 3904 -16 P_1
FLAG 3904 48 Co_0
FLAG 4240 272 Vdd
IOPIN 4240 272 In
FLAG 4240 416 Vee
IOPIN 4240 416 In
FLAG 4032 400 Vee
IOPIN 4032 400 In
FLAG 4032 272 Vdd
IOPIN 4032 272 In
FLAG 3904 304 P_0
FLAG 3904 368 Cin
IOPIN 3904 368 In
FLAG 4352 16 S1
IOPIN 4352 16 Out
FLAG 4352 336 S0
IOPIN 4352 336 Out
FLAG -256 -1184 0
FLAG -128 -1184 0
FLAG -32 -1184 0
FLAG 96 -1184 0
FLAG -256 -1264 A_0
IOPIN -256 -1264 In
FLAG -128 -1264 A_1
IOPIN -128 -1264 In
FLAG -32 -1264 A_2
IOPIN -32 -1264 In
FLAG 96 -1264 A_3
IOPIN 96 -1264 In
FLAG -256 -944 0
FLAG -128 -944 0
FLAG -32 -944 0
FLAG 96 -944 0
FLAG -256 -1024 B_0
IOPIN -256 -1024 In
FLAG -128 -1024 B_1
IOPIN -128 -1024 In
FLAG -32 -1024 B_2
IOPIN -32 -1024 In
FLAG 96 -1024 B_3
IOPIN 96 -1024 In
FLAG -208 -656 0
FLAG -208 -736 Cin
IOPIN -208 -736 In
FLAG 32 -640 0
FLAG 32 -720 Vee
IOPIN 32 -720 In
SYMBOL voltage -304 -192 R0
SYMATTR InstName V1
SYMATTR Value {Vdd}
SYMBOL voltage -304 32 R0
WINDOW 123 0 0 Left 0
WINDOW 39 0 0 Left 0
SYMATTR InstName V2
SYMATTR Value PULSE(0 {Vdd} 20u 50n 50n 10u 20u)
SYMBOL INVx1 1872 -608 R0
SYMATTR InstName X2
SYMBOL INVx1 2448 -560 R0
SYMATTR InstName X3
SYMBOL INVx1 3152 -608 R0
SYMATTR InstName X4
SYMBOL INVx1 2944 16 R0
SYMATTR InstName X5
SYMBOL INVx1 1888 -224 R0
SYMATTR InstName X6
SYMBOL INVx1 4240 -304 R0
SYMATTR InstName X7
SYMBOL INVx1 4240 -624 R0
SYMATTR InstName X8
SYMBOL INVx1 4240 16 R0
SYMATTR InstName X9
SYMBOL INVx1 4240 336 R0
SYMATTR InstName X10
SYMBOL NAND2x1 1648 -608 R0
SYMATTR InstName X11
SYMBOL NAND2x1 2928 -608 R0
SYMATTR InstName X12
SYMBOL NAND2x1 2720 16 R0
SYMATTR InstName X13
SYMBOL NAND2x1 1664 -224 R0
SYMATTR InstName X14
SYMBOL NOR2x1 2208 -560 R0
SYMATTR InstName X15
SYMBOL XNOR2x1 4000 336 R0
SYMATTR InstName X16
SYMBOL XNOR2x1 4000 16 R0
SYMATTR InstName X17
SYMBOL XNOR2x1 4000 -304 R0
SYMATTR InstName X18
SYMBOL XNOR2x1 4000 -624 R0
SYMATTR InstName X19
SYMBOL 5-NOR 3344 192 R0
SYMATTR InstName X20
SYMBOL 4-NOR 3472 -400 R0
SYMATTR InstName X21
SYMBOL 3-NOR 2208 -32 R0
SYMATTR InstName X22
SYMBOL 3-NAND 1888 64 R0
SYMATTR InstName X23
SYMBOL 3-NAND 2880 -352 R0
SYMATTR InstName X24
SYMBOL 3-NAND 2672 256 R0
SYMATTR InstName X25
SYMBOL 4-NAND 3136 -288 R0
SYMATTR InstName X26
SYMBOL 4-NAND 2896 320 R0
SYMATTR InstName X27
SYMBOL 5-NAND 3120 352 R0
SYMATTR InstName X28
SYMBOL PG 2144 -848 R0
SYMATTR InstName X29
SYMBOL PG 2400 -848 R0
SYMATTR InstName X30
SYMBOL PG 2656 -848 R0
SYMATTR InstName X31
SYMBOL PG 2912 -848 R0
SYMATTR InstName X32
SYMBOL voltage -256 -1280 R0
WINDOW 123 0 0 Left 0
WINDOW 39 0 0 Left 0
SYMATTR InstName V3
SYMATTR Value 0
SYMBOL voltage -128 -1280 R0
WINDOW 123 0 0 Left 0
WINDOW 39 0 0 Left 0
SYMATTR InstName V4
SYMATTR Value 0
SYMBOL voltage -32 -1280 R0
WINDOW 123 0 0 Left 0
WINDOW 39 0 0 Left 0
SYMATTR InstName V5
SYMATTR Value 0
SYMBOL voltage 96 -1280 R0
WINDOW 123 0 0 Left 0
WINDOW 39 0 0 Left 0
SYMATTR InstName V6
SYMATTR Value 0
SYMBOL voltage -256 -1040 R0
WINDOW 123 0 0 Left 0
WINDOW 39 0 0 Left 0
SYMATTR InstName V7
SYMATTR Value 0
SYMBOL voltage -128 -1040 R0
WINDOW 123 0 0 Left 0
WINDOW 39 0 0 Left 0
SYMATTR InstName V8
SYMATTR Value 0
SYMBOL voltage -32 -1040 R0
WINDOW 123 0 0 Left 0
WINDOW 39 0 0 Left 0
SYMATTR InstName V9
SYMATTR Value 0
SYMBOL voltage 96 -1040 R0
WINDOW 123 0 0 Left 0
WINDOW 39 0 0 Left 0
SYMATTR InstName V10
SYMATTR Value 1
SYMBOL voltage -208 -752 R0
WINDOW 123 0 0 Left 0
WINDOW 39 0 0 Left 0
SYMATTR InstName V11
SYMATTR Value 0
SYMBOL voltage 32 -736 R0
WINDOW 123 0 0 Left 0
WINDOW 39 0 0 Left 0
SYMATTR InstName V12
SYMATTR Value 0
TEXT 808 -520 Left 2 !.inc ..\\..\\gf180\\cmos_tt.txt
TEXT 808 -552 Left 2 !.param Vdd=3.3
TEXT 1432 -360 Left 2 ;Co_1
TEXT 2744 -728 Left 2 ;Co_2
TEXT 2536 -104 Left 2 ;Co_3
TEXT 1416 -736 Left 2 ;Co_0
TEXT 792 -424 Left 2 !.tran 0 15n 0 10p
RECTANGLE Normal 1408 -384 2480 224
RECTANGLE Normal 1392 -752 2688 -416
RECTANGLE Normal 3664 -160 2720 -752
RECTANGLE Normal 3520 496 2512 -128
