Version 4
SHEET 1 1084 680
WIRE 208 16 208 0
WIRE 688 16 688 0
WIRE -144 48 -304 48
WIRE 112 48 -144 48
WIRE 592 48 496 48
WIRE 496 80 496 48
WIRE 496 80 304 80
WIRE 832 80 784 80
WIRE 944 80 832 80
WIRE 112 112 48 112
WIRE 592 112 560 112
WIRE -144 160 -144 48
WIRE 208 160 208 144
WIRE 688 160 688 144
WIRE 832 208 832 80
WIRE 832 208 592 208
WIRE -192 240 -208 240
WIRE -64 240 -96 240
WIRE 560 256 560 112
WIRE 832 256 560 256
WIRE 208 352 208 336
WIRE 688 352 688 336
WIRE -144 384 -144 320
WIRE 112 384 -144 384
WIRE 592 384 592 208
WIRE 496 416 304 416
WIRE 832 416 832 256
WIRE 832 416 784 416
WIRE 944 416 832 416
WIRE 112 448 64 448
WIRE 496 448 496 416
WIRE 592 448 496 448
WIRE 208 496 208 480
WIRE 688 496 688 480
FLAG 208 0 Vdd
IOPIN 208 0 In
FLAG 208 160 0
FLAG 208 336 Vdd
IOPIN 208 336 In
FLAG 208 496 0
FLAG 688 0 Vdd
IOPIN 688 0 In
FLAG 688 160 0
FLAG 688 336 Vdd
IOPIN 688 336 In
FLAG 688 496 0
FLAG -64 240 Vdd
IOPIN -64 240 In
FLAG -208 240 0
FLAG -304 48 D
IOPIN -304 48 In
FLAG 944 80 Q
IOPIN 944 80 Out
FLAG 944 416 Q_BAR
IOPIN 944 416 Out
FLAG 48 112 CK
IOPIN 48 112 In
FLAG 64 448 CK
IOPIN 64 448 In
SYMBOL NAND2x1 208 80 R0
SYMATTR InstName X1
SYMBOL NAND2x1 208 416 R0
SYMATTR InstName X2
SYMBOL NAND2x1 688 80 R0
SYMATTR InstName X3
SYMBOL NAND2x1 688 416 R0
SYMATTR InstName X4
SYMBOL INVx1 -144 240 R90
SYMATTR InstName X5
