Version 4
SHEET 1 880 680
FLAG -32 -288 d1
IOPIN -32 -288 In
FLAG 128 -320 vdd
IOPIN 128 -320 In
FLAG 128 -144 vdd
FLAG 128 32 vdd
FLAG 128 208 vdd
FLAG 128 384 vdd
FLAG -32 -256 ck
IOPIN -32 -256 In
FLAG -32 -112 d2
IOPIN -32 -112 In
FLAG -32 -80 ck
IOPIN -32 -80 In
FLAG -32 64 d3
IOPIN -32 64 In
FLAG -32 96 ck
IOPIN -32 96 In
FLAG -32 240 d4
IOPIN -32 240 In
FLAG -32 272 ck
IOPIN -32 272 In
FLAG -32 416 d5
IOPIN -32 416 In
FLAG -32 448 ck
IOPIN -32 448 In
FLAG 128 -288 q1
IOPIN 128 -288 Out
FLAG 128 -112 q2
IOPIN 128 -112 Out
FLAG 128 64 q3
IOPIN 128 64 Out
FLAG 128 240 q4
IOPIN 128 240 Out
FLAG 128 416 q5
IOPIN 128 416 Out
SYMBOL DFF 48 -288 R0
SYMATTR InstName X1
SYMBOL DFF 48 -112 R0
SYMATTR InstName X2
SYMBOL DFF 48 64 R0
SYMATTR InstName X3
SYMBOL DFF 48 240 R0
SYMATTR InstName X4
SYMBOL DFF 48 416 R0
SYMATTR InstName X5
