Version 4
SHEET 1 892 680
WIRE -816 -496 -1104 -496
WIRE -1104 -400 -1104 -496
WIRE -1104 -384 -1104 -400
WIRE 144 -320 -192 -320
WIRE 144 -288 -192 -288
WIRE 144 -256 -192 -256
WIRE 144 -224 -192 -224
WIRE 144 16 -576 16
WIRE -1808 32 -1808 16
WIRE -576 112 -576 16
WIRE -1824 176 -1824 160
WIRE -576 224 -576 112
WIRE -576 240 -576 224
FLAG -816 -592 vdd
FLAG 304 -320 vdd
FLAG 144 224 vdd
FLAG 304 48 y0
FLAG 304 80 y1
FLAG 304 112 y2
FLAG 304 144 y3
FLAG 304 176 y4
FLAG 304 208 y5
FLAG -1104 -320 0
FLAG -1280 -304 0
FLAG -1280 -384 vdd
FLAG 672 -272 y0
FLAG 672 -96 y1
FLAG 672 48 y2
FLAG 672 224 y3
FLAG 672 384 y4
FLAG 672 528 y5
FLAG 832 -304 vdd
FLAG 832 -128 vdd
FLAG 832 16 vdd
FLAG 832 192 vdd
FLAG 832 352 vdd
FLAG 832 496 vdd
FLAG -1104 -496 ck
FLAG 672 -240 ck
FLAG 672 -64 ck
FLAG 672 80 ck
FLAG 672 256 ck
FLAG 672 416 ck
FLAG 672 560 ck
FLAG -576 304 0
FLAG 144 48 0
FLAG 144 80 0
FLAG 144 112 0
FLAG 144 144 0
FLAG 144 176 0
FLAG -576 112 phi1_0
FLAG -1808 96 0
FLAG -1824 240 0
FLAG -1808 16 q0
FLAG -1824 160 q1
FLAG 144 256 vdd
FLAG 144 288 vdd
FLAG 144 320 vdd
FLAG 144 352 vdd
FLAG 144 384 vdd
FLAG -352 -320 vdd
FLAG -352 -288 q0
FLAG -352 -256 q1
FLAG 144 432 vdd
FLAG 144 464 vdd
FLAG 144 496 vdd
FLAG 144 528 vdd
FLAG 144 560 vdd
FLAG 144 592 vdd
FLAG 144 -192 0
FLAG 144 -160 0
FLAG 144 -128 0
FLAG 144 -96 0
FLAG 144 -64 0
FLAG 144 -32 0
SYMBOL 24X6MUC 224 128 R0
SYMATTR InstName X1
SYMBOL PhaseSelector -736 -544 R0
SYMATTR InstName X2
SYMBOL voltage -1104 -416 R0
WINDOW 123 0 0 Left 0
WINDOW 39 0 0 Left 0
SYMATTR InstName V1
SYMATTR Value PULSE(0 3.3 0 1p 1p 10n 20n)
SYMBOL voltage -1280 -400 R0
WINDOW 123 0 0 Left 0
WINDOW 39 0 0 Left 0
SYMATTR InstName V2
SYMATTR Value 3.3
SYMBOL DFF 752 -272 R0
SYMATTR InstName X3
SYMBOL DFF 752 -96 R0
SYMATTR InstName X4
SYMBOL DFF 752 48 R0
SYMATTR InstName X5
SYMBOL DFF 752 224 R0
SYMATTR InstName X6
SYMBOL DFF 752 384 R0
SYMATTR InstName X7
SYMBOL DFF 752 528 R0
SYMATTR InstName X8
SYMBOL voltage -576 208 R0
WINDOW 123 0 0 Left 0
WINDOW 39 0 0 Left 0
SYMATTR InstName V3
SYMATTR Value PULSE(0 3.3 1n 1p 1p 10n 20n)
SYMBOL voltage -1808 0 R0
WINDOW 123 0 0 Left 0
WINDOW 39 0 0 Left 0
SYMATTR InstName V4
SYMATTR Value PULSE(3.3 0   5n 100p 100p 50n 100n 1)
SYMBOL voltage -1824 144 R0
WINDOW 123 0 0 Left 0
WINDOW 39 0 0 Left 0
SYMATTR InstName V5
SYMATTR Value PULSE(3.3  0 5n 100p 100p 50n 100n 1)
SYMBOL DECODER -272 -272 R0
SYMATTR InstName X9
TEXT -1376 -552 Left 2 !.tran 0 15n 0 10p
TEXT -1480 -504 Left 2 !.inc ..\\..\\gf180\\cmos_tt.txt
TEXT -1024 464 Left 2 !.measure tran tmux_data_r TRIG V(phi1_0) VAL=1.65 RISE=1 TARG V(y0) VAL=1.65 RISE=1\n\n.measure tran tmux_data_f TRIG V(phi1_0) VAL=1.65 FALL=1 TARG V(y0) VAL=1.65 FALL=1
TEXT -1288 624 Left 2 !.measure tran tmux_sel TRIG V(q1) VAL=1.65 FALL=1 TARG V(y5) VAL=1.65 FALL=1
