Version 4
SHEET 1 4748 1120
WIRE 2176 336 2048 336
WIRE 3184 352 3056 352
WIRE 2048 560 2048 336
WIRE 2192 560 2048 560
WIRE 3056 576 3056 352
WIRE 3200 576 3056 576
WIRE 2048 608 2048 560
WIRE 2048 608 1872 608
WIRE 3056 624 3056 576
WIRE 3056 624 2880 624
WIRE 2048 768 2048 608
WIRE 2192 768 2048 768
WIRE 3056 784 3056 624
WIRE 3200 784 3056 784
WIRE 2048 992 2048 768
WIRE 2208 992 2048 992
WIRE 2048 1008 2048 992
WIRE 3056 1008 3056 784
WIRE 3216 1008 3056 1008
WIRE 3056 1024 3056 1008
FLAG -288 112 0
FLAG -288 -112 0
FLAG -288 -192 Vdd
FLAG -288 32 CK
FLAG 112 -112 0
FLAG 112 -192 D
FLAG 1280 -128 D
FLAG 1280 -96 CK
FLAG 1440 -128 q
FLAG 1440 -96 q_bar
FLAG 2000 -128 Vdd
FLAG 2256 384 0
FLAG 2256 288 Vdd
FLAG 2272 608 0
FLAG 2272 512 Vdd
FLAG 2272 816 0
FLAG 2272 720 Vdd
FLAG 2288 1040 0
FLAG 2288 944 Vdd
FLAG 1872 608 q
FLAG 1840 -96 D2
FLAG 1840 -64 CK
FLAG 2000 -96 q2
FLAG 3264 400 0
FLAG 3264 304 Vdd
FLAG 3280 624 0
FLAG 3280 528 Vdd
FLAG 3280 832 0
FLAG 3280 736 Vdd
FLAG 3296 1056 0
FLAG 3296 960 Vdd
FLAG 2880 624 q2
FLAG 384 144 0
FLAG 384 64 D2
FLAG 1440 -160 Vdd
SYMBOL voltage -288 16 R0
SYMATTR InstName V1
SYMATTR Value PULSE(0 3.3 0 100p 100p 5n 10n)
SYMBOL voltage -288 -208 R0
WINDOW 123 0 0 Left 0
WINDOW 39 0 0 Left 0
SYMATTR InstName V2
SYMATTR Value 3.3
SYMBOL voltage 112 -208 R0
SYMATTR InstName V3
SYMATTR Value PWL(0 0 {20n-tsu-50p} 0 {20n-tsu+50p} 3.3)
SYMBOL SDFF 1360 -128 R0
SYMATTR InstName X8
SYMBOL DFF 1920 -96 R0
SYMATTR InstName X1
SYMBOL INVx1 2256 336 R0
SYMATTR InstName X2
SYMBOL INVx1 2272 560 R0
SYMATTR InstName X3
SYMBOL INVx1 2272 768 R0
SYMATTR InstName X4
SYMBOL INVx1 2288 992 R0
SYMATTR InstName X5
SYMBOL INVx1 3264 352 R0
SYMATTR InstName X6
SYMBOL INVx1 3280 576 R0
SYMATTR InstName X7
SYMBOL INVx1 3280 784 R0
SYMATTR InstName X9
SYMBOL INVx1 3296 1008 R0
SYMATTR InstName X10
SYMBOL voltage 384 48 R0
SYMATTR InstName V4
SYMATTR Value PWL(0 0 {20n-tsu-50p} 0 {20n-tsu+50p} 3.3)
TEXT -304 368 Left 2 ;.tran 0 60n 0 10p\n.meas TRAN clk2q_rise TRIG V(ck) VAL=1.65 RISE=2 TARG V(q) VAL=1.65 RISE=1\n.meas TRAN clk2q_fall TRIG V(ck) VAL=1.65 RISE=4 TARG V(q) VAL=1.65 FALL=2\n \n.meas TRAN clk2q_rise_2 TRIG V(ck) VAL=1.65 RISE=2 TARG V(q2) VAL=1.65 RISE=1\n.meas TRAN clk2q_fall_2 TRIG V(ck) VAL=1.65 RISE=4 TARG V(q2) VAL=1.65 FALL=1
TEXT -320 -416 Left 2 !.inc ..\\..\\gf180\\cmos_tt.txt
TEXT 1016 48 Left 2 !.param tsu 90p\n.tran 0 100n 0 5p\n.meas TRAN clk2q TRIG V(ck) VAL=1.65 TD=20n RISE=1 TARG V(q) VAL=1.65 RISE=1
TEXT 2200 32 Left 2 !.meas TRAN clk2q_2 TRIG V(ck) VAL=1.65 TD=20n RISE=1 TARG V(q2) VAL=1.65 RISE=1
