Version 4
SHEET 1 1180 1312
WIRE -2384 -1040 -2656 -1040
WIRE -2384 -1008 -2656 -1008
WIRE -2384 -976 -2656 -976
WIRE -2384 -944 -2656 -944
WIRE -1632 -688 -1856 -688
WIRE -1632 -656 -1856 -656
WIRE -1632 -624 -1856 -624
WIRE -7088 -592 -7088 -624
WIRE -1632 -592 -1856 -592
WIRE -1632 -560 -1856 -560
WIRE -1632 -528 -1856 -528
WIRE -7088 -496 -7088 -512
WIRE -7088 -352 -7088 -384
WIRE -6464 -352 -6544 -352
WIRE -6144 -352 -6208 -352
WIRE -6464 -320 -6544 -320
WIRE -6144 -320 -6208 -320
WIRE -7088 -256 -7088 -272
WIRE -2704 448 -2704 416
WIRE -2640 448 -2704 448
WIRE -2704 464 -2704 448
WIRE -2640 512 -2640 448
WIRE -2640 512 -2704 512
WIRE -3040 544 -3040 480
WIRE -2752 544 -2832 544
WIRE -3136 576 -3248 576
WIRE -3120 576 -3136 576
WIRE -4768 608 -4768 592
WIRE -2832 608 -2832 544
WIRE -2832 608 -2944 608
WIRE -2704 608 -2704 560
WIRE -2512 608 -2704 608
WIRE -3136 640 -3248 640
WIRE -2704 640 -2704 608
WIRE -2640 688 -2704 688
WIRE -2832 720 -2832 608
WIRE -2752 720 -2832 720
WIRE -2704 752 -2704 736
WIRE -2640 752 -2640 688
WIRE -2640 752 -2704 752
WIRE -2704 800 -2704 752
FLAG 656 944 0
FLAG 672 688 0
FLAG 672 448 0
FLAG 656 224 0
FLAG 656 0 0
FLAG 656 -240 0
FLAG -592 160 Xold_0
FLAG -480 160 Xold_1
FLAG -352 160 Xold_2
FLAG -240 160 Xold_3
FLAG -112 160 Xold_4
FLAG 0 160 Xold_5
FLAG -592 240 0
FLAG -480 240 0
FLAG -352 240 0
FLAG -240 240 0
FLAG -112 240 0
FLAG 0 240 0
FLAG 656 864 Xnew_0
FLAG 672 608 Xnew_1
FLAG 672 368 Xnew_2
FLAG 656 144 Xnew_3
FLAG 656 -80 Xnew_4
FLAG 656 -320 Xnew_5
FLAG -5184 -896 phi0_0
FLAG -5184 -864 phi0_1
FLAG -5184 -832 phi0_2
FLAG -5184 -800 phi0_3
FLAG -5184 -768 phi0_4
FLAG -5184 -736 phi0_5
FLAG -5184 -704 phi1_0
FLAG -5184 -672 phi1_1
FLAG -5184 -640 phi1_2
FLAG -5184 -608 phi1_3
FLAG -5184 -576 phi1_4
FLAG -5184 -544 phi1_5
FLAG -5184 -512 phi2_0
FLAG -5184 -480 phi2_1
FLAG -5184 -448 phi2_2
FLAG -5184 -416 phi2_3
FLAG -5184 -384 phi2_4
FLAG -5184 -352 phi2_5
FLAG -5184 -320 phi3_0
FLAG -5184 -288 phi3_1
FLAG -5184 -256 phi3_2
FLAG -5184 -224 phi3_3
FLAG -5184 -192 phi3_4
FLAG -5184 -160 phi3_5
FLAG -4976 672 0
FLAG -5408 -896 Vdd
FLAG -4976 592 Vdd
FLAG -5408 -160 0
FLAG -2816 -1040 vdd
FLAG -2816 -1008 q0
FLAG -2816 -976 q1
FLAG -2224 -1040 Vdd
FLAG -2224 -672 y0_ff
FLAG -2224 -640 y1_ff
FLAG -2224 -608 y2_ff
FLAG -2224 -576 y3_ff
FLAG -2224 -544 y4_ff
FLAG -2224 -512 y5_ff
FLAG -4592 -1120 phi0_0
FLAG -4592 -1088 phi0_1
FLAG -4592 -1056 phi0_2
FLAG -4592 -1024 phi0_3
FLAG -4592 -992 phi0_4
FLAG -4592 -960 phi0_5
FLAG -4592 -752 phi1_0
FLAG -4592 -720 phi1_1
FLAG -4592 -688 phi1_2
FLAG -4592 -656 phi1_3
FLAG -4592 -624 phi1_4
FLAG -4592 -592 phi1_5
FLAG -4592 -32 phi3_0
FLAG -4592 0 phi3_1
FLAG -4592 32 phi3_2
FLAG -4592 64 phi3_3
FLAG -4592 96 phi3_4
FLAG -4592 128 phi3_5
FLAG -4592 -400 phi2_0
FLAG -4592 -368 phi2_1
FLAG -4592 -336 phi2_2
FLAG -4592 -304 phi2_3
FLAG -4592 -272 phi2_4
FLAG -4592 -240 phi2_5
FLAG -4480 -1120 q0_0
FLAG -4480 -1088 q0_1
FLAG -4480 -1056 q0_2
FLAG -4480 -1024 q0_3
FLAG -4480 -992 q0_4
FLAG -4480 -960 q0_5
FLAG -4480 -752 q1_0
FLAG -4480 -720 q1_1
FLAG -4480 -688 q1_2
FLAG -4480 -656 q1_3
FLAG -4480 -624 q1_4
FLAG -4480 -592 q1_5
FLAG -4480 -400 q2_0
FLAG -4480 -368 q2_1
FLAG -4480 -336 q2_2
FLAG -4480 -304 q2_3
FLAG -4480 -272 q2_4
FLAG -4480 -240 q2_5
FLAG -4480 -32 q3_0
FLAG -4480 0 q3_1
FLAG -4480 32 q3_2
FLAG -4480 64 q3_3
FLAG -4480 96 q3_4
FLAG -4480 128 q3_5
FLAG -2384 -912 q0_0
FLAG -2384 -880 q0_1
FLAG -2384 -848 q0_2
FLAG -2384 -816 q0_3
FLAG -2384 -784 q0_4
FLAG -2384 -752 q0_5
FLAG -2384 -704 q1_0
FLAG -2384 -672 q1_1
FLAG -2384 -640 q1_2
FLAG -2384 -608 q1_3
FLAG -2384 -576 q1_4
FLAG -2384 -544 q1_5
FLAG -2384 -496 q2_0
FLAG -2384 -464 q2_1
FLAG -2384 -432 q2_2
FLAG -2384 -400 q2_3
FLAG -2384 -368 q2_4
FLAG -2384 -336 q2_5
FLAG -2384 -288 q3_0
FLAG -2384 -256 q3_1
FLAG -2384 -224 q3_2
FLAG -2384 -192 q3_3
FLAG -2384 -160 q3_4
FLAG -2384 -128 q3_5
FLAG -4480 -1168 Vdd
FLAG -4480 -800 Vdd
FLAG -4480 -448 Vdd
FLAG -4480 -80 Vdd
FLAG -3136 -992 q0
FLAG -3136 -960 q1
FLAG -3248 -992 vdd
FLAG -3248 -960 ck_fast
FLAG -4768 672 0
FLAG -4768 592 ck_fast
FLAG -7088 -496 0
FLAG -7088 -624 i_clk
FLAG -7088 -256 0
FLAG -7088 -384 i_rstb
FLAG -6144 -352 o_D[5:2]
FLAG -6544 -352 i_clk
FLAG -6544 -320 i_rstb
FLAG -6144 -320 o_D[1:0]
FLAG -5408 -688 q0_2
FLAG -5408 -656 q0_3
FLAG -5408 -624 q0_4
FLAG -5408 -592 q0_5
FLAG -5696 -400 Vdd
FLAG -5808 -288 o_D[2]
FLAG -5808 -256 o_D[3]
FLAG -5808 -224 o_D[4]
FLAG -5808 -192 o_D[5]
FLAG -5808 -320 0
FLAG -5808 -352 0
FLAG -5696 -320 0
FLAG -5696 -352 0
FLAG -5696 -288 oc_0
FLAG -5696 -256 oc_1
FLAG -5696 -224 oc_2
FLAG -5696 -192 oc_3
FLAG -5408 -480 oc_0
FLAG -5408 -448 oc_1
FLAG -5408 -416 oc_2
FLAG -5408 -384 oc_3
FLAG -1856 -736 Vdd
FLAG -1968 -736 ck_fast
FLAG -1536 -688 y0
FLAG -1536 -656 y1
FLAG -1536 -624 y2
FLAG -1536 -592 y3
FLAG -1536 -560 y4
FLAG -1536 -528 y5
FLAG -1968 -688 y0_ff
FLAG -1968 -656 y1_ff
FLAG -1968 -624 y2_ff
FLAG -1968 -592 y3_ff
FLAG -1968 -560 y4_ff
FLAG -1968 -528 y5_ff
FLAG -3248 640 q1
FLAG -3248 576 q0
FLAG -3040 480 Vdd
FLAG -3040 672 0
FLAG -2512 608 EN
FLAG -4592 176 EN
FLAG -4592 -192 EN
FLAG -4592 -544 EN
FLAG -4592 -912 EN
FLAG -4592 -448 ck_fast
FLAG -4592 -800 ck_fast
FLAG -4592 -1168 ck_fast
FLAG -4592 -80 ck_fast
FLAG -5808 -400 ck_fast
FLAG -5808 -144 EN
FLAG -2704 416 Vdd
IOPIN -2704 416 In
FLAG -2704 800 0
FLAG -1632 -720 ck_fast
SYMBOL voltage 656 848 R0
WINDOW 123 0 0 Left 0
WINDOW 39 0 0 Left 0
SYMATTR InstName V1
SYMATTR Value PULSE(0 3.3 5n 100p 100p 500n 1000n 1)
SYMBOL voltage 672 592 R0
WINDOW 123 0 0 Left 0
WINDOW 39 0 0 Left 0
SYMATTR InstName V2
SYMATTR Value PULSE(0 0    5n 100p 100p 50n 100n 1)
SYMBOL voltage 672 352 R0
WINDOW 123 0 0 Left 0
WINDOW 39 0 0 Left 0
SYMATTR InstName V3
SYMATTR Value PULSE(0 0    5n 100p 100p 50n 100n 1)
SYMBOL voltage 656 128 R0
WINDOW 123 0 0 Left 0
WINDOW 39 0 0 Left 0
SYMATTR InstName V4
SYMATTR Value PULSE(0 0    5n 100p 100p 50n 100n 1)
SYMBOL voltage 656 -96 R0
WINDOW 123 0 0 Left 0
WINDOW 39 0 0 Left 0
SYMATTR InstName V5
SYMATTR Value PULSE(0 0  5n 100p 100p 50n 100n 1)
SYMBOL voltage 656 -336 R0
WINDOW 123 0 0 Left 0
WINDOW 39 0 0 Left 0
SYMATTR InstName V6
SYMATTR Value PULSE(0 0 5n 100p 100p 50n 100n 1)
SYMBOL voltage -592 144 R0
WINDOW 123 0 0 Left 0
WINDOW 39 0 0 Left 0
SYMATTR InstName V7
SYMATTR Value {Xnew_0}
SYMBOL voltage -480 144 R0
WINDOW 123 0 0 Left 0
WINDOW 39 0 0 Left 0
SYMATTR InstName V8
SYMATTR Value {Xnew_1}
SYMBOL voltage -352 144 R0
WINDOW 123 0 0 Left 0
WINDOW 39 0 0 Left 0
SYMATTR InstName V9
SYMATTR Value {Xnew_2}
SYMBOL voltage -240 144 R0
WINDOW 123 0 0 Left 0
WINDOW 39 0 0 Left 0
SYMATTR InstName V10
SYMATTR Value {Xnew_3}
SYMBOL voltage -112 144 R0
WINDOW 123 0 0 Left 0
WINDOW 39 0 0 Left 0
SYMATTR InstName V11
SYMATTR Value {Xnew_4}
SYMBOL voltage 0 144 R0
WINDOW 123 0 0 Left 0
WINDOW 39 0 0 Left 0
SYMATTR InstName V12
SYMATTR Value {Xnew_5}
SYMBOL voltage -4976 576 R0
WINDOW 123 0 0 Left 0
WINDOW 39 0 0 Left 0
SYMATTR InstName V13
SYMATTR Value 3.3
SYMBOL 24X6MUC -2304 -592 R0
SYMATTR InstName X2
SYMBOL DECODER -2736 -992 R0
SYMATTR InstName X3
SYMBOL 2bcount -3200 -976 R0
SYMATTR InstName X8
SYMBOL voltage -4768 576 R0
WINDOW 123 0 0 Left 0
WINDOW 39 0 0 Left 0
SYMATTR InstName V17
SYMATTR Value PULSE(0 3.3 'td' 'tt' 'tt' 'tclk/2' 'tclk')
SYMBOL voltage -7088 -608 R0
SYMATTR InstName V19
SYMATTR Value PULSE(0 3.3 'td' 'tt' 'tt' '4*tclk/2' '4*tclk')
SYMBOL voltage -7088 -368 R0
SYMATTR InstName V20
SYMATTR Value PULSE(3.3 0 1n 'tt' 'tt' 10n)
SYMBOL RAMP -6336 -336 R0
SYMATTR InstName A1
SYMBOL pseudo_FIR_CLA_NoCin -5296 -528 R0
SYMATTR InstName X1
SYMBOL dff_ideal_5 -1584 -624 R0
SYMATTR InstName X11
SYMBOL NAND2x1 -3040 608 R0
SYMATTR InstName X10
SYMBOL sdff_5_EN -4544 -1040 R0
SYMATTR InstName X4
SYMBOL sdff_5_EN -4544 -672 R0
SYMATTR InstName X5
SYMBOL sdff_5_EN -4544 -320 R0
SYMATTR InstName X6
SYMBOL sdff_5_EN -4544 48 R0
SYMATTR InstName X7
SYMBOL sdff_5_EN -5760 -272 R0
SYMATTR InstName X9
SYMBOL nmos4 -2752 640 R0
SYMATTR InstName M1
SYMATTR Value nmos_3p3
SYMATTR Value2 l=0.28u w=3u
SYMBOL nmos4 -2752 464 R0
SYMATTR InstName M2
SYMATTR Value pmos_3p3
SYMATTR Value2 l=0.28u w=9u
SYMBOL DFF_5 -1920 -624 R0
SYMATTR InstName X12
TEXT -48 -664 Left 2 !.param Xold_0=0 Xold_1=0 Xold_2=0 Xold_3=0 Xold_4=0 Xold_5=0\n.param Xnew_0=0 Xnew_1=0 Xnew_2=0 Xnew_3=0 Xnew_4=0 Xnew_5=0
TEXT -48 -512 Left 2 ;.tran 0 100n 0 10p
TEXT -56 -432 Left 2 !.inc ..\\..\\gf180\\cmos_tt.txt
TEXT -616 456 Left 2 !.measure tran tphi1_A TRIG V(xold_5) VAL=1.65 RISE=1 TARG V(phi1_5) VAL=1.65 RISE=1\n.measure tran tphi1_B TRIG V(Xold_0) VAL=1.65 RISE=1 TARG V(phi1_4) VAL=1.65 RISE=1
TEXT -360 -792 Left 2 !.param a=0.9
TEXT -816 -360 Left 2 ;(0.25*V(phi0_0) + 0.5*V(phi0_1) + V(phi0_2) + 2*V(phi0_3) + 4*V(phi0_4) + 8*V(phi0_5))/3.3\n(0.25*V(phi1_0) + 0.5*V(phi1_1) + V(phi1_2) + 2*V(phi1_3) + 4*V(phi1_4) + 8*V(phi1_5))/3.3\n(0.25*V(phi2_0) + 0.5*V(phi2_1) + V(phi2_2) + 2*V(phi2_3) + 4*V(phi2_4) + 8*V(phi2_5))/3.3\n(0.25*V(phi3_0) + 0.5*V(phi3_1) + V(phi3_2) + 2*V(phi3_3) + 4*V(phi3_4) + 8*V(phi3_5))/3.3
TEXT -1192 -936 Left 2 ;(0.25*V(y0)+0.5*V(y1)+V(y2)+2*V(y3)+4*V(y4)+8*V(y5))/3.3
TEXT -5976 -776 Left 2 !.tran {100*t_oc}\n.param f_oc = 1.8G\n.param t_oc = {1/f_oc}\n.param tclk = {t_oc}\n.param td = {t_oc/5}\n.param tt = 10p
TEXT -5592 -1464 Left 2 !.ic V(phi0_0)=0 V(phi0_1)=0 V(phi0_2)=0 V(phi0_3)=0 V(phi0_4)=0 V(phi0_5)=0
TEXT -6416 256 Left 2 !.meas TRAN Pvdd AVG V(Vdd)*I(V13)     FROM={50*tclk} TO={70*tclk}\n.meas TRAN Pclk AVG V(ck_fast)*I(V17) FROM={50*tclk} TO={70*tclk}\n.meas TRAN Ptot AVG Pclk+Pvdd         FROM={50*tclk} TO={70*tclk}
