Version 4
SHEET 1 1180 964
FLAG 656 944 0
FLAG 672 688 0
FLAG 672 448 0
FLAG 656 224 0
FLAG 656 0 0
FLAG 656 -240 0
FLAG 656 864 Xold_0
FLAG 672 608 Xold_1
FLAG 672 368 Xold_2
FLAG 656 144 Xold_3
FLAG 656 -80 Xold_4
FLAG 656 -320 Xold_5
FLAG -592 240 0
FLAG -480 240 0
FLAG -352 240 0
FLAG -240 240 0
FLAG -112 240 0
FLAG 0 240 0
FLAG -592 160 Xnew_0
FLAG -480 160 Xnew_1
FLAG -352 160 Xnew_2
FLAG -240 160 Xnew_3
FLAG -112 160 Xnew_4
FLAG 0 160 Xnew_5
FLAG -1072 -288 Xold_0
FLAG -1072 -224 Xold_2
FLAG -1072 -192 Xold_3
FLAG -1072 -160 Xold_4
FLAG -1072 -128 Xold_5
FLAG -1072 16 Xnew_0
FLAG -1072 48 Xnew_1
FLAG -1072 80 Xnew_2
FLAG -1072 112 Xnew_3
FLAG -1072 144 Xnew_4
FLAG -1072 176 Xnew_5
FLAG -1072 -256 Xold_1
FLAG -848 -416 phi0_0
FLAG -848 -384 phi0_1
FLAG -848 -352 phi0_2
FLAG -848 -320 phi0_3
FLAG -848 -288 phi0_4
FLAG -848 -256 phi0_5
FLAG -848 -224 phi1_0
FLAG -848 -192 phi1_1
FLAG -848 -160 phi1_2
FLAG -848 -128 phi1_3
FLAG -848 -96 phi1_4
FLAG -848 -64 phi1_5
FLAG -848 -32 phi2_0
FLAG -848 0 phi2_1
FLAG -848 32 phi2_2
FLAG -848 64 phi2_3
FLAG -848 96 phi2_4
FLAG -848 128 phi2_5
FLAG -848 160 phi3_0
FLAG -848 192 phi3_1
FLAG -848 224 phi3_2
FLAG -848 256 phi3_3
FLAG -848 288 phi3_4
FLAG -848 320 phi3_5
FLAG -1232 720 0
FLAG -1072 -416 Vdd
FLAG -1232 640 Vdd
SYMBOL voltage 656 848 R0
WINDOW 123 0 0 Left 0
WINDOW 39 0 0 Left 0
SYMATTR InstName V1
SYMATTR Value PULSE(0 3.3 5n 100p 100p 50n 100n 1)
SYMBOL voltage 672 592 R0
WINDOW 123 0 0 Left 0
WINDOW 39 0 0 Left 0
SYMATTR InstName V2
SYMATTR Value PULSE(0 0    5n 100p 100p 50n 100n 1)
SYMBOL voltage 672 352 R0
WINDOW 123 0 0 Left 0
WINDOW 39 0 0 Left 0
SYMATTR InstName V3
SYMATTR Value PULSE(0 0    5n 100p 100p 50n 100n 1)
SYMBOL voltage 656 128 R0
WINDOW 123 0 0 Left 0
WINDOW 39 0 0 Left 0
SYMATTR InstName V4
SYMATTR Value PULSE(0 0    5n 100p 100p 50n 100n 1)
SYMBOL voltage 656 -96 R0
WINDOW 123 0 0 Left 0
WINDOW 39 0 0 Left 0
SYMATTR InstName V5
SYMATTR Value PULSE(0 0  5n 100p 100p 50n 100n 1)
SYMBOL voltage 656 -336 R0
WINDOW 123 0 0 Left 0
WINDOW 39 0 0 Left 0
SYMATTR InstName V6
SYMATTR Value PULSE(0 0 5n 100p 100p 50n 100n 1)
SYMBOL voltage -592 144 R0
WINDOW 123 0 0 Left 0
WINDOW 39 0 0 Left 0
SYMATTR InstName V7
SYMATTR Value {Xnew_0}
SYMBOL voltage -480 144 R0
WINDOW 123 0 0 Left 0
WINDOW 39 0 0 Left 0
SYMATTR InstName V8
SYMATTR Value {Xnew_1}
SYMBOL voltage -352 144 R0
WINDOW 123 0 0 Left 0
WINDOW 39 0 0 Left 0
SYMATTR InstName V9
SYMATTR Value {Xnew_2}
SYMBOL voltage -240 144 R0
WINDOW 123 0 0 Left 0
WINDOW 39 0 0 Left 0
SYMATTR InstName V10
SYMATTR Value {Xnew_3}
SYMBOL voltage -112 144 R0
WINDOW 123 0 0 Left 0
WINDOW 39 0 0 Left 0
SYMATTR InstName V11
SYMATTR Value {Xnew_4}
SYMBOL voltage 0 144 R0
WINDOW 123 0 0 Left 0
WINDOW 39 0 0 Left 0
SYMATTR InstName V12
SYMATTR Value {Xnew_5}
SYMBOL FIR_RACX -960 -48 R0
SYMATTR InstName X1
SYMBOL voltage -1232 624 R0
WINDOW 123 0 0 Left 0
WINDOW 39 0 0 Left 0
SYMATTR InstName V13
SYMATTR Value 3.3
TEXT -48 -664 Left 2 !.param Xold_0=0 Xold_1=0 Xold_2=0 Xold_3=0 Xold_4=0 Xold_5=3.3\n.param Xnew_0=3.3 Xnew_1=3.3 Xnew_2=3.3 Xnew_3=3.3 Xnew_4=3.3 Xnew_5=3.3
TEXT -48 -512 Left 2 !.tran 0 15n 0 10p
TEXT -56 -432 Left 2 !.inc ..\\..\\gf180\\cmos_tt.txt
TEXT -616 456 Left 2 !.measure tran tphi1_A TRIG V(xold_5) VAL=1.65 RISE=1 TARG V(phi1_5) VAL=1.65 RISE=1\n.measure tran tphi1_B TRIG V(Xold_0) VAL=1.65 RISE=1 TARG V(phi1_4) VAL=1.65 RISE=1
