Version 4
SHEET 1 3276 1252
WIRE 2448 336 2384 336
WIRE 2096 352 2048 352
WIRE 2448 384 2384 384
WIRE 2096 400 2048 400
WIRE 2096 480 2048 480
WIRE 2448 480 2384 480
WIRE 2096 528 2048 528
WIRE 2448 528 2384 528
WIRE 2096 576 2048 576
WIRE 2448 576 2384 576
WIRE 2096 624 2048 624
WIRE 2448 624 2384 624
WIRE 720 672 624 672
WIRE 720 704 624 704
WIRE 720 736 624 736
WIRE 720 768 624 768
WIRE 2064 816 2000 816
WIRE 2448 816 2384 816
WIRE 2064 864 2000 864
WIRE 2448 864 2384 864
WIRE 720 944 624 944
WIRE 2064 944 2000 944
WIRE 2448 944 2384 944
WIRE 720 976 624 976
WIRE 2064 992 2000 992
WIRE 2448 992 2384 992
WIRE 720 1008 624 1008
WIRE 720 1040 624 1040
WIRE 2064 1040 2000 1040
WIRE 2448 1040 2384 1040
WIRE 2064 1088 2000 1088
WIRE 2448 1088 2384 1088
FLAG 624 496 0
FLAG 640 240 0
FLAG 640 0 0
FLAG 624 -224 0
FLAG 624 416 Xold_0
FLAG 640 160 Xold_1
FLAG 640 -80 Xold_2
FLAG 624 -304 Xold_3
FLAG -592 240 0
FLAG -480 240 0
FLAG -352 240 0
FLAG -240 240 0
FLAG -592 160 Xnew_0
FLAG -480 160 Xnew_1
FLAG -352 160 Xnew_2
FLAG -240 160 Xnew_3
FLAG -1232 720 0
FLAG -1232 640 Vdd
FLAG 624 672 Xold_0
IOPIN 624 672 In
FLAG 624 704 Xold_1
IOPIN 624 704 In
FLAG 624 736 Xold_2
IOPIN 624 736 In
FLAG 624 768 Xold_3
IOPIN 624 768 In
FLAG 624 944 Xnew_0
IOPIN 624 944 In
FLAG 624 976 Xnew_1
IOPIN 624 976 In
FLAG 624 1008 Xnew_2
IOPIN 624 1008 In
FLAG 624 1040 Xnew_3
IOPIN 624 1040 In
FLAG 1216 800 S1_0
FLAG 1216 832 S1_1
FLAG 1216 864 S1_2
FLAG 1216 896 S1_3
FLAG 1216 752 S1_4
FLAG 1488 528 Xold_0
FLAG 1488 560 Xold_1
FLAG 1488 592 Xold_2
FLAG 1488 624 Xold_3
FLAG 1488 1056 Xnew_0
FLAG 1488 1088 Xnew_1
FLAG 1488 1120 Xnew_2
FLAG 1488 1152 Xnew_3
FLAG 1488 496 0
FLAG 1488 1024 0
FLAG 2096 352 phi0_0
IOPIN 2096 352 Out
FLAG 2096 400 phi0_1
IOPIN 2096 400 Out
FLAG 2096 480 phi0_2
IOPIN 2096 480 Out
FLAG 2096 528 phi0_3
IOPIN 2096 528 Out
FLAG 2096 576 phi0_4
IOPIN 2096 576 Out
FLAG 2096 624 phi0_5
IOPIN 2096 624 Out
FLAG 2448 336 phi1_0
IOPIN 2448 336 Out
FLAG 2448 384 phi1_1
IOPIN 2448 384 Out
FLAG 2448 480 phi1_2
IOPIN 2448 480 Out
FLAG 2448 528 phi1_3
IOPIN 2448 528 Out
FLAG 2448 576 phi1_4
IOPIN 2448 576 Out
FLAG 2448 624 phi1_5
IOPIN 2448 624 Out
FLAG 2448 816 phi3_0
IOPIN 2448 816 Out
FLAG 2448 864 phi3_1
IOPIN 2448 864 Out
FLAG 2448 944 phi3_2
IOPIN 2448 944 Out
FLAG 2448 992 phi3_3
IOPIN 2448 992 Out
FLAG 2448 1040 phi3_4
IOPIN 2448 1040 Out
FLAG 2448 1088 phi3_5
IOPIN 2448 1088 Out
FLAG 2064 816 phi2_0
IOPIN 2064 816 Out
FLAG 2064 864 phi2_1
IOPIN 2064 864 Out
FLAG 2064 944 phi2_2
IOPIN 2064 944 Out
FLAG 2064 992 phi2_3
IOPIN 2064 992 Out
FLAG 2064 1040 phi2_4
IOPIN 2064 1040 Out
FLAG 2064 1088 phi2_5
IOPIN 2064 1088 Out
FLAG 1968 480 Xold_0
FLAG 1968 528 Xold_1
FLAG 1968 576 Xold_2
FLAG 1968 624 Xold_3
FLAG 2000 944 S1_1
FLAG 2000 992 S1_2
FLAG 2000 1040 S1_3
FLAG 2000 1088 S1_4
FLAG 2000 864 S1_0
FLAG 1632 448 S2_0
FLAG 1632 480 S2_1
FLAG 1632 512 S2_2
FLAG 1632 544 S2_3
FLAG 1632 576 S2_4
FLAG 1632 384 S2_5
FLAG 1632 976 S3_0
FLAG 1632 1008 S3_1
FLAG 1632 1040 S3_2
FLAG 1632 1072 S3_3
FLAG 1632 1104 S3_4
FLAG 1632 912 S3_5
FLAG 2384 480 S2_2
FLAG 2384 528 S2_3
FLAG 2384 576 S2_4
FLAG 2384 624 S2_5
FLAG 2384 336 S2_0
FLAG 2384 384 S2_1
FLAG 2384 944 S3_2
FLAG 2384 992 S3_3
FLAG 2384 1040 S3_4
FLAG 2384 1088 S3_5
FLAG 2384 816 S3_0
FLAG 2384 864 S3_1
FLAG 1488 304 S1_0
FLAG 1488 336 S1_1
FLAG 1488 368 S1_2
FLAG 1488 400 S1_3
FLAG 1488 432 S1_4
FLAG 1488 832 S1_0
FLAG 1488 864 S1_1
FLAG 1488 896 S1_2
FLAG 1488 928 S1_3
FLAG 1488 960 S1_4
FLAG 1216 672 Vdd
IOPIN 1216 672 In
FLAG 1632 816 Vdd
IOPIN 1632 816 In
FLAG 1632 288 Vdd
IOPIN 1632 288 In
FLAG 720 672 Xold_0
FLAG 720 736 Xold_2
FLAG 720 768 Xold_3
FLAG 720 944 Xnew_0
FLAG 720 976 Xnew_1
FLAG 720 1008 Xnew_2
FLAG 720 1040 Xnew_3
FLAG 720 704 Xold_1
FLAG 1072 688 Xold_0
FLAG 1072 752 Xold_2
FLAG 1072 784 Xold_3
FLAG 1072 720 Xold_1
FLAG 1072 848 Xnew_0
FLAG 1072 880 Xnew_1
FLAG 1072 912 Xnew_2
FLAG 1072 944 Xnew_3
FLAG 1216 704 0
FLAG 1632 320 0
FLAG 1632 848 0
FLAG 1968 352 0
FLAG 1968 400 0
FLAG 1920 816 0
FLAG -496 912 0
FLAG -496 832 Vee
SYMBOL voltage 624 400 R0
WINDOW 123 0 0 Left 0
WINDOW 39 0 0 Left 0
SYMATTR InstName V1
SYMATTR Value PULSE(0 3.3 5n 100p 100p 50n 100n 1)
SYMBOL voltage 640 144 R0
WINDOW 123 0 0 Left 0
WINDOW 39 0 0 Left 0
SYMATTR InstName V2
SYMATTR Value PULSE(0 0    5n 100p 100p 50n 100n 1)
SYMBOL voltage 640 -96 R0
WINDOW 123 0 0 Left 0
WINDOW 39 0 0 Left 0
SYMATTR InstName V3
SYMATTR Value PULSE(0 0    5n 100p 100p 50n 100n 1)
SYMBOL voltage 624 -320 R0
WINDOW 123 0 0 Left 0
WINDOW 39 0 0 Left 0
SYMATTR InstName V4
SYMATTR Value PULSE(0 0    5n 100p 100p 50n 100n 1)
SYMBOL voltage -592 144 R0
WINDOW 123 0 0 Left 0
WINDOW 39 0 0 Left 0
SYMATTR InstName V7
SYMATTR Value {Xnew_0}
SYMBOL voltage -480 144 R0
WINDOW 123 0 0 Left 0
WINDOW 39 0 0 Left 0
SYMATTR InstName V8
SYMATTR Value {Xnew_1}
SYMBOL voltage -352 144 R0
WINDOW 123 0 0 Left 0
WINDOW 39 0 0 Left 0
SYMATTR InstName V9
SYMATTR Value {Xnew_2}
SYMBOL voltage -240 144 R0
WINDOW 123 0 0 Left 0
WINDOW 39 0 0 Left 0
SYMATTR InstName V10
SYMATTR Value {Xnew_3}
SYMBOL voltage -1232 624 R0
WINDOW 123 0 0 Left 0
WINDOW 39 0 0 Left 0
SYMATTR InstName V13
SYMATTR Value 3.3
SYMBOL voltage 2064 352 R90
WINDOW 123 0 0 Left 0
WINDOW 39 0 0 Left 0
SYMATTR InstName V5
SYMATTR Value 0
SYMBOL voltage 2064 400 R90
WINDOW 123 0 0 Left 0
WINDOW 39 0 0 Left 0
SYMATTR InstName V6
SYMATTR Value 0
SYMBOL voltage 2064 480 R90
WINDOW 123 0 0 Left 0
WINDOW 39 0 0 Left 0
SYMATTR InstName V11
SYMATTR Value 0
SYMBOL voltage 2064 528 R90
WINDOW 123 0 0 Left 0
WINDOW 39 0 0 Left 0
SYMATTR InstName V12
SYMATTR Value 0
SYMBOL voltage 2064 576 R90
WINDOW 123 0 0 Left 0
WINDOW 39 0 0 Left 0
SYMATTR InstName V14
SYMATTR Value 0
SYMBOL voltage 2064 624 R90
WINDOW 123 0 0 Left 0
WINDOW 39 0 0 Left 0
SYMATTR InstName V15
SYMATTR Value 0
SYMBOL voltage 2016 816 R90
WINDOW 123 0 0 Left 0
WINDOW 39 0 0 Left 0
SYMATTR InstName V16
SYMATTR Value 0
SYMBOL pseudo-CLA-5bit-NoCin 1552 464 R0
SYMATTR InstName X2
SYMBOL pseudo-CLA-5bit-NoCin 1552 992 R0
SYMATTR InstName X3
SYMBOL pseudo-CLA-4bit-NoCin 1136 816 R0
SYMATTR InstName X4
SYMBOL voltage -496 816 R0
WINDOW 123 0 0 Left 0
WINDOW 39 0 0 Left 0
SYMATTR InstName V17
SYMATTR Value 0
TEXT -48 -664 Left 2 !.param Xold_0=0 Xold_1=0 Xold_2=0 Xold_3=0\n.param Xnew_0=0 Xnew_1=0 Xnew_2=0 Xnew_3=0
TEXT -48 -512 Left 2 !.tran 0 15n 0 10p
TEXT -56 -432 Left 2 !.inc ..\\..\\gf180\\cmos_tt.txt
TEXT -616 456 Left 2 !.measure tran tphi1_A TRIG V(xold_5) VAL=1.65 RISE=1 TARG V(phi1_5) VAL=1.65 RISE=1\n.measure tran tphi1_B TRIG V(Xold_0) VAL=1.65 RISE=1 TARG V(phi1_4) VAL=1.65 RISE=1
TEXT -48 -608 Left 2 !.param a=0.7
TEXT 1968 280 Left 2 ;PHI_0 OUTPUTS
TEXT 2328 280 Left 2 ;PHI_1 OUTPUTS
TEXT 2336 760 Left 2 ;PHI_3 OUTPUTS
TEXT 1944 760 Left 2 ;PHI_2 OUTPUTS
TEXT 336 744 Left 2 ;X[k] INPUTS
TEXT 304 1000 Left 2 ;X[k+1] INPUTS
TEXT 1936 1176 Left 2 ;Output [5:0]:
TEXT 1960 1208 Left 2 ;- Output[5:2] -> 0 a 15\n- Output[1:0] -> 00=>0; 01=>1/4; 10=>1/2; 11=>3/4
TEXT 1432 1224 Left 2 ;S + Xnew*2 (shifted)
TEXT 1440 688 Left 2 ;S + Xold*2 (shifted)
TEXT 1024 1016 Left 2 ;S = Xold + Xnew
TEXT 3208 248 Left 2 ;phi_0
